<?xml version='1.0' encoding='UTF-8'?>
<edgedata>
	<interval id="all" begin="0" end="3600">
		<edge id="-1004369132#3" traveltime="2.432353649392855e-05" />
		<edge id="-1007811374#1" traveltime="1.0357315401289339e-11" />
		<edge id="-1007837779#2" traveltime="0.24247119375657625" />
		<edge id="-1007837780#1" traveltime="2.091106549340315" />
		<edge id="-1007837781#1" traveltime="1.790951177781222" />
		<edge id="-1010159653#1" traveltime="2.1068690595279763e-05" />
		<edge id="-1015679930#1" traveltime="4.588446383378441e-12" />
		<edge id="-1040863520#2" traveltime="0.05599710465889825" />
		<edge id="-1040863520#5" traveltime="0.019482663383333012" />
		<edge id="-1051550982#2" traveltime="33.36310062642777" />
		<edge id="-1067449185#1" traveltime="0.00026318217586360936" />
		<edge id="-1068067608" traveltime="4.489501984499397e-11" />
		<edge id="-1068067609" traveltime="8.777468753188707e-11" />
		<edge id="-1080319437#2" traveltime="0.1000947877677019" />
		<edge id="-1080319439#2" traveltime="2.123898265976001" />
		<edge id="-1080862161#1" traveltime="3.2089007260952295e-137" />
		<edge id="-1080862162#1" traveltime="6.948068907082477e-138" />
		<edge id="-1080862163" traveltime="1.6743371341653548e-137" />
		<edge id="-1080862164" traveltime="1.260828666924084e-137" />
		<edge id="-1080862166#1" traveltime="5.358856211758077e-139" />
		<edge id="-1080862168#1" traveltime="9.035648542218303e-141" />
		<edge id="-1080862169#1" traveltime="3.219846977373885e-139" />
		<edge id="-1080862170" traveltime="3.365256670182898e-141" />
		<edge id="-1080862171#1" traveltime="9.146448771733573e-142" />
		<edge id="-1080862174#1" traveltime="5.358619249388055e-143" />
		<edge id="-1080862175#1" traveltime="2.0344575109046075e-146" />
		<edge id="-1080862176#1" traveltime="3.5307696822610193e-149" />
		<edge id="-1080862178" traveltime="2.3372817340172806e-150" />
		<edge id="-1080862179#1" traveltime="1.4787139527027393e-153" />
		<edge id="-1080862180#2" traveltime="2.7356246302978988e-155" />
		<edge id="-1080864177" traveltime="1.5787776732044158e-141" />
		<edge id="-1080864178" traveltime="1.2476795515163631e-141" />
		<edge id="-1080864180#1" traveltime="2.0029235803132218e-137" />
		<edge id="-1080864181#1" traveltime="2.996011920993311e-139" />
		<edge id="-1080871810" traveltime="1.7701013648550968e-111" />
		<edge id="-1080978583#1" traveltime="1.7380639119784462e-21" />
		<edge id="-1080978584#0" traveltime="1.8054763704086155e-15" />
		<edge id="-1080978584#3" traveltime="7.854272818251024e-15" />
		<edge id="-1080978585#1" traveltime="6.029935980678991e-14" />
		<edge id="-1080978585#2" traveltime="2.259956212610489e-13" />
		<edge id="-1080978586#0" traveltime="5.523950658411633e-13" />
		<edge id="-1080978586#3" traveltime="1.7073605984929157e-12" />
		<edge id="-1080982427#1" traveltime="0.8225748012347789" />
		<edge id="-1080982430#1" traveltime="20.160378123742824" />
		<edge id="-1080982431#2" traveltime="3.7636677956882982" />
		<edge id="-1080982432" traveltime="2.3722061027250922" />
		<edge id="-1080982433#1" traveltime="0.00382075799721474" />
		<edge id="-1080982434#1" traveltime="0.10679008548426296" />
		<edge id="-1080982435#1" traveltime="2.5444022813085327" />
		<edge id="-1080982436#1" traveltime="8.43410534872725" />
		<edge id="-1080982437#1" traveltime="34.74582972999609" />
		<edge id="-1080982438#1" traveltime="38.258437295890516" />
		<edge id="-1080982439#1" traveltime="40.53049146515866" />
		<edge id="-1081824061#3" traveltime="15.99099580779091" />
		<edge id="-1081893303#1" traveltime="4.0186684383425885e-72" />
		<edge id="-1081895353#1" traveltime="1.856974611544417e-139" />
		<edge id="-1081978814" traveltime="5.8393026210722845e-136" />
		<edge id="-1086962995#1" traveltime="4.4278564058645023e-16" />
		<edge id="-1087048475#1" traveltime="9.547421256722295e-57" />
		<edge id="-1088005912#1" traveltime="1.9336095378789807e-06" />
		<edge id="-1088320647#1" traveltime="4.465451349739671e-05" />
		<edge id="-1088320649#1" traveltime="6.365185324052017e-06" />
		<edge id="-1088320650#1" traveltime="3.4810150853086747e-06" />
		<edge id="-1088320651#1" traveltime="1.4438025551887629e-06" />
		<edge id="-1088320653#1" traveltime="5.441969118630731e-07" />
		<edge id="-1088320655#1" traveltime="0.0191415589755989" />
		<edge id="-1088320657#1" traveltime="3.580584849396405" />
		<edge id="-1088321123#1" traveltime="0.3251007724534126" />
		<edge id="-1088325193#1" traveltime="2.956860120476406e-19" />
		<edge id="-1088325194" traveltime="5.642213732147992e-19" />
		<edge id="-1088325195#1" traveltime="1.7184088181355198e-14" />
		<edge id="-1088325196#1" traveltime="5.374382741417999e-11" />
		<edge id="-1088325197#1" traveltime="1.515856818968393e-09" />
		<edge id="-1091706625#1" traveltime="0.0031690449750061637" />
		<edge id="-1096304299" traveltime="5.087931849767286e-08" />
		<edge id="-1123882067" traveltime="6.190376024526073e-118" />
		<edge id="-1124726425#6" traveltime="1.5107711477091257e-10" />
		<edge id="-1125106323" traveltime="2.2402586579599068e-15" />
		<edge id="-1125256558#2" traveltime="3.4115806432615103e-12" />
		<edge id="-1126410242#1" traveltime="1.6337906902308378e-15" />
		<edge id="-1128358854" traveltime="1.3086028670066238e-22" />
		<edge id="-1133806010#2" traveltime="4.848332192026492e-19" />
		<edge id="-1135342273#3" traveltime="6.251716079641283e-05" />
		<edge id="-1135342275#4" traveltime="0.00020847240301859082" />
		<edge id="-1135342276#1" traveltime="0.007078649429418929" />
		<edge id="-1135342277#1" traveltime="0.011518821133022994" />
		<edge id="-1135361330#1" traveltime="2.341746210900693e-12" />
		<edge id="-1136699156#1" traveltime="0.09189477880100348" />
		<edge id="-1136699157" traveltime="0.08581477365328717" />
		<edge id="-1136699158#1" traveltime="0.08110019943455127" />
		<edge id="-1136699159#2" traveltime="0.06771957553707916" />
		<edge id="-1136699160#2" traveltime="0.047446861765198765" />
		<edge id="-1136952921#1" traveltime="4.4536863130298237e-20" />
		<edge id="-1138164083" traveltime="9.211429078366415e-07" />
		<edge id="-1145069303#2" traveltime="2.7086540845542483e-16" />
		<edge id="-1156469243#2" traveltime="1.4493161778400186e-08" />
		<edge id="-1156475401#2" traveltime="2.2605902882213686e-06" />
		<edge id="-1156810185#2" traveltime="4.8498045798849425e-31" />
		<edge id="-1159051925#1" traveltime="0.8099754942038773" />
		<edge id="-1159051944#1" traveltime="1.3202916788508652" />
		<edge id="-1159052040#1" traveltime="0.01379719472104257" />
		<edge id="-1159053669#1" traveltime="0.3843494048154949" />
		<edge id="-1164741792" traveltime="5.749461728708957e-142" />
		<edge id="-116672333#3" traveltime="0.0006479340129789072" />
		<edge id="-1188730152#1" traveltime="3.5420237678447354e-11" />
		<edge id="-1188954618#1" traveltime="2.3666691462208524e-13" />
		<edge id="-1203376569#2" traveltime="1.0674527910866103e-24" />
		<edge id="-1203376570#2" traveltime="1.3928499674995863e-26" />
		<edge id="-1203376571#2" traveltime="4.400513679631713e-29" />
		<edge id="-1203376572#1" traveltime="3.487832435488054e-32" />
		<edge id="-1229513732#1" traveltime="0.0005699379012125189" />
		<edge id="-1230733658" traveltime="4.182937892348236e-16" />
		<edge id="-1231600246" traveltime="4.695466919779467e-20" />
		<edge id="-1231809467" traveltime="5.672374349442698e-16" />
		<edge id="-1232833559#1" traveltime="0.0011585441366086706" />
		<edge id="-1233090489" traveltime="1.3696842643613434e-10" />
		<edge id="-1234696599" traveltime="8.341649760810089e-08" />
		<edge id="-1235023069#1" traveltime="7.826140930550071e-05" />
		<edge id="-1238156663#1" traveltime="2.0156480753385106" />
		<edge id="-1238347014#1" traveltime="4.4340843369324754e-08" />
		<edge id="-1238431028#2" traveltime="2.0869480799005628e-06" />
		<edge id="-1238431029#1" traveltime="3.546819539001517e-07" />
		<edge id="-1238431052#2" traveltime="1.9105888885869715e-07" />
		<edge id="-1238431052#5" traveltime="1.832172542048607e-07" />
		<edge id="-1238431052#8" traveltime="1.6674222296136814e-07" />
		<edge id="-1238431053#2" traveltime="3.241803272359481e-08" />
		<edge id="-1238545752#2" traveltime="0.009424304698066703" />
		<edge id="-1242277191#3" traveltime="4.628979197324318e-10" />
		<edge id="-1252123717#1" traveltime="8.533945347792591e-07" />
		<edge id="-1252123718#1" traveltime="1.9168908126450867e-06" />
		<edge id="-1252123719#1" traveltime="2.4928781062448403e-06" />
		<edge id="-125525165#4" traveltime="6.53180402774011e-14" />
		<edge id="-125525171#4" traveltime="1.0953241832903558e-09" />
		<edge id="-1262278385" traveltime="14.42574443647857" />
		<edge id="-1271523170#1" traveltime="3.607456022417329e-83" />
		<edge id="-1271523171#1" traveltime="2.008640495904306e-92" />
		<edge id="-1271523171#4" traveltime="3.2632046411780227e-97" />
		<edge id="-1271523171#7" traveltime="7.921015605140052e-101" />
		<edge id="-1271523174#1" traveltime="5.738700441680487e-116" />
		<edge id="-1271523174#4" traveltime="3.249164555710448e-121" />
		<edge id="-1271523178" traveltime="3.2497793031186226e-125" />
		<edge id="-1272613980#2" traveltime="4.423139740654792e-27" />
		<edge id="-1272613981#1" traveltime="1.0959725443664762e-23" />
		<edge id="-1274636982#2" traveltime="16.899538965739172" />
		<edge id="-1274636982#5" traveltime="22.55721467027449" />
		<edge id="-1274636982#8" traveltime="25.974147131045942" />
		<edge id="-127690685#2" traveltime="1.425920879420244e-05" />
		<edge id="-1278214313#2" traveltime="56.165512937878894" />
		<edge id="-1289604771" traveltime="16.99671072130104" />
		<edge id="-139919706#1" traveltime="2.167219333380163e-10" />
		<edge id="-154716101#2" traveltime="2.036781597078294e-77" />
		<edge id="-154716101#5" traveltime="2.3829867141376897e-80" />
		<edge id="-154716105#2" traveltime="1.487778918843149e-74" />
		<edge id="-161387757#1" traveltime="8.134679536575768e-111" />
		<edge id="-161387759#1" traveltime="5.882820109557401e-112" />
		<edge id="-165777195#1" traveltime="0.2964216002472592" />
		<edge id="-166038132#1" traveltime="0.0045260745442932465" />
		<edge id="-167922072#1" traveltime="1.8281306467484893e-20" />
		<edge id="-167922076#2" traveltime="5.790316953289707e-20" />
		<edge id="-167922077#2" traveltime="3.201151984965275e-21" />
		<edge id="-169267538#1" traveltime="5.743140584004108e-28" />
		<edge id="-169381957#2" traveltime="2.6438665006613083e-107" />
		<edge id="-169381959#1" traveltime="1.6597479432272357e-109" />
		<edge id="-169381961#1" traveltime="3.6823171727393045e-59" />
		<edge id="-169381963#2" traveltime="3.4271199947784553e-73" />
		<edge id="-169381963#5" traveltime="5.139647547942166e-70" />
		<edge id="-194923760#1" traveltime="9.452664414161596e-08" />
		<edge id="-194923762#1" traveltime="0.023360459968675914" />
		<edge id="-194923763#1" traveltime="0.7864702945665303" />
		<edge id="-194923763#3" traveltime="0.1260520456450567" />
		<edge id="-194923764#4" traveltime="17.055319978339007" />
		<edge id="-194923764#7" traveltime="2.8908769717172293" />
		<edge id="-194923765" traveltime="9.76874734489401e-05" />
		<edge id="-194923778#1" traveltime="9.7329507776043e-12" />
		<edge id="-194923791#1" traveltime="6.321517410508334" />
		<edge id="-194923798#1" traveltime="0.005765124730401323" />
		<edge id="-194926839" traveltime="8.206464277482613e-05" />
		<edge id="-194926840#1" traveltime="5.001851512536732e-20" />
		<edge id="-195743138#2" traveltime="7.929388700010428e-32" />
		<edge id="-195743152#1" traveltime="7.985069228325568e-60" />
		<edge id="-195743164#1" traveltime="0.015366089524804913" />
		<edge id="-195743169#3" traveltime="3.856533856999106e-126" />
		<edge id="-195743170" traveltime="3.635460066092941e-160" />
		<edge id="-195743193#1" traveltime="1.1257354339850768e-97" />
		<edge id="-195743193#4" traveltime="2.920391695286034e-95" />
		<edge id="-195743193#7" traveltime="1.4763794726526647e-91" />
		<edge id="-195743195#2" traveltime="5.903343280921852e-23" />
		<edge id="-195743199#12" traveltime="4.6840475077672e-26" />
		<edge id="-195743208#6" traveltime="1.384987469293423e-08" />
		<edge id="-195743213#1" traveltime="7.141310000139459e-88" />
		<edge id="-195743214#3" traveltime="1.9049425778833864e-103" />
		<edge id="-195743215#1" traveltime="2.0355766817667766e-109" />
		<edge id="-195743222#1" traveltime="6.7280469944087e-84" />
		<edge id="-195743224#2" traveltime="3.71390032824001e-102" />
		<edge id="-195743267#1" traveltime="5.151530068640483e-24" />
		<edge id="-195743554#12" traveltime="8.15464639367138" />
		<edge id="-195743554#16" traveltime="20.39135809558845" />
		<edge id="-195743554#19" traveltime="36.06879208864751" />
		<edge id="-195743554#22" traveltime="55.83172924536254" />
		<edge id="-195743554#3" traveltime="0.20910216706243218" />
		<edge id="-195743554#6" traveltime="1.4083189699900671" />
		<edge id="-195743554#9" traveltime="4.061016962885558" />
		<edge id="-195743555#1" traveltime="5.466962087848559" />
		<edge id="-195743555#3" traveltime="8.89168119297501" />
		<edge id="-195745911#1" traveltime="7.419282962466027e-07" />
		<edge id="-195922666#1" traveltime="7.234277872992197e-104" />
		<edge id="-195922666#2" traveltime="9.735681399294419e-108" />
		<edge id="-196116988#1" traveltime="8.956459127759046e-60" />
		<edge id="-196117014#1" traveltime="2.8541595776485546e-05" />
		<edge id="-196117073" traveltime="23.20696451514327" />
		<edge id="-196117074" traveltime="46.85363909833698" />
		<edge id="-196117075#2" traveltime="2.4334286534918776" />
		<edge id="-196117075#6" traveltime="0.7560161208334014" />
		<edge id="-196117083#2" traveltime="1.8813467542814792e-53" />
		<edge id="-196117084#2" traveltime="1.530526037738777e-53" />
		<edge id="-220544055" traveltime="2.2114253642665357e-134" />
		<edge id="-226040985#1" traveltime="4.356122665542528e-07" />
		<edge id="-226040986#1" traveltime="5.2620285602858194e-06" />
		<edge id="-226041016#2" traveltime="0.0028412577116054107" />
		<edge id="-226041016#5" traveltime="0.0005371789835656045" />
		<edge id="-226041024#1" traveltime="5.7230077255317e-25" />
		<edge id="-226193905#4" traveltime="1.1034649368288402e-18" />
		<edge id="-226193928#1" traveltime="3.972157402143909e-19" />
		<edge id="-226193929#1" traveltime="1.3252749564808503e-20" />
		<edge id="-226193929#3" traveltime="7.529028306886327e-20" />
		<edge id="-22904149#1" traveltime="4.063174721598648e-05" />
		<edge id="-22904155#1" traveltime="1.5694049971563496e-63" />
		<edge id="-22909247" traveltime="0.04661990914134957" />
		<edge id="-22928102#3" traveltime="2.315454956675471e-23" />
		<edge id="-22937242" traveltime="3.230859023370238e-28" />
		<edge id="-23048670#1" traveltime="1.339130239126183e-134" />
		<edge id="-246085471#2" traveltime="1.355318332998198e-13" />
		<edge id="-250267912#1" traveltime="0.00037396682408498476" />
		<edge id="-25166891#2" traveltime="9.026273569007415" />
		<edge id="-25166922#2" traveltime="0.039985262530935615" />
		<edge id="-25167210#1" traveltime="0.0194868516419619" />
		<edge id="-25167210#3" traveltime="0.029826765480557235" />
		<edge id="-25167210#5" traveltime="0.039486406234132194" />
		<edge id="-25167210#7" traveltime="0.04566021181312543" />
		<edge id="-25167462" traveltime="0.003434090114018372" />
		<edge id="-25196678#1" traveltime="0.0012041926531867393" />
		<edge id="-252227354#1" traveltime="4.667314181852841e-65" />
		<edge id="-252227354#4" traveltime="6.497455977781423e-66" />
		<edge id="-252227354#5" traveltime="1.0450196357680803e-67" />
		<edge id="-25564580#2" traveltime="9.953191568425275e-08" />
		<edge id="-256902831#2" traveltime="0.020301661762229768" />
		<edge id="-263088941#1" traveltime="8.354500209934196e-14" />
		<edge id="-273019810#1" traveltime="3.963140422863406e-13" />
		<edge id="-273019810#4" traveltime="1.481987066454424e-11" />
		<edge id="-276670360#3" traveltime="0.27059588124724765" />
		<edge id="-277201109#2" traveltime="7.856305171195645e-30" />
		<edge id="-317400962#5" traveltime="9.239393669401629" />
		<edge id="-32946655#2" traveltime="6.801618093521867e-67" />
		<edge id="-335935797#1" traveltime="1.2874312237930495e-05" />
		<edge id="-335935798#1" traveltime="6.126123099614026e-06" />
		<edge id="-346951422#2" traveltime="1.0359564048748332e-71" />
		<edge id="-34769546#1" traveltime="5.799672357208113e-21" />
		<edge id="-352705236#1" traveltime="0.0007970723854202723" />
		<edge id="-352858405" traveltime="9.620153487991281e-110" />
		<edge id="-36185649#2" traveltime="4.886211908679667e-59" />
		<edge id="-36271338#2" traveltime="1.1646754941528486e-28" />
		<edge id="-36271338#9" traveltime="1.0199786953763456e-29" />
		<edge id="-36801165#2" traveltime="2.9285617120572056e-19" />
		<edge id="-36806903#1" traveltime="4.891503996722361e-10" />
		<edge id="-37182106#2" traveltime="2.714349758867088e-75" />
		<edge id="-37182106#5" traveltime="5.467696687587189e-77" />
		<edge id="-375165665" traveltime="1.1704782478512342e-63" />
		<edge id="-381477004#2" traveltime="1.5698554153788365e-25" />
		<edge id="-381477008#1" traveltime="2.7805422816261398e-24" />
		<edge id="-384178812#3" traveltime="3.023666346638946" />
		<edge id="-384649121#7" traveltime="1.2533371965394752e-08" />
		<edge id="-384826723#2" traveltime="1.9425533139862284e-32" />
		<edge id="-38605246#2" traveltime="1.0597415529295659e-16" />
		<edge id="-38605247#3" traveltime="1.1595490495882734e-18" />
		<edge id="-388316170#2" traveltime="1.7319486738934823e-28" />
		<edge id="-388695705#2" traveltime="0.12728576448247061" />
		<edge id="-388696206#2" traveltime="1.3341825660282005e-58" />
		<edge id="-39662323#5" traveltime="5.2597437034964807e-11" />
		<edge id="-397839400#12" traveltime="0.010759348994916209" />
		<edge id="-397839400#3" traveltime="0.0007376155932886239" />
		<edge id="-397839400#6" traveltime="0.002171607148234697" />
		<edge id="-397839400#9" traveltime="0.005171192086963101" />
		<edge id="-39956203#2" traveltime="9.233537749196898e-12" />
		<edge id="-39956203#4" traveltime="1.3262751841606106e-11" />
		<edge id="-400334766" traveltime="3.3207732007750653e-140" />
		<edge id="-403405990#2" traveltime="0.01215256544285552" />
		<edge id="-404253730#1" traveltime="1.6106112710603191e-105" />
		<edge id="-40879216#2" traveltime="1.7757321814455747e-12" />
		<edge id="-413212450#1" traveltime="2.7266797269353614e-34" />
		<edge id="-413212450#4" traveltime="1.2528493755519504e-32" />
		<edge id="-414743582#2" traveltime="2.4296967659538256e-10" />
		<edge id="-414751458#2" traveltime="1.6449712867898515e-05" />
		<edge id="-414751576#2" traveltime="0.0016885775990488454" />
		<edge id="-420354362#1" traveltime="4.717240313144465e-07" />
		<edge id="-420356168#4" traveltime="1.6031551340970915e-28" />
		<edge id="-420356169#3" traveltime="2.830253496530585e-30" />
		<edge id="-420357621#3" traveltime="9.969157777741718e-89" />
		<edge id="-420357622#1" traveltime="1.0129508384300628e-91" />
		<edge id="-420357623" traveltime="9.45220136694251e-94" />
		<edge id="-420358887#2" traveltime="0.053255855357315446" />
		<edge id="-420509471#6" traveltime="3.0721299725956447e-09" />
		<edge id="-420522443#2" traveltime="0.32746998612027095" />
		<edge id="-420522443#4" traveltime="0.9490121707283616" />
		<edge id="-420522695#2" traveltime="0.0025522046876398936" />
		<edge id="-420526338#2" traveltime="0.05906571645498186" />
		<edge id="-420598373#1" traveltime="2.3368540311967108e-05" />
		<edge id="-420598407#2" traveltime="6.615129309068796" />
		<edge id="-420623119" traveltime="4.434442290369887e-142" />
		<edge id="-420623120#2" traveltime="1.9415913139380643e-141" />
		<edge id="-420872197#1" traveltime="0.00013208619962642795" />
		<edge id="-420872199#1" traveltime="0.00015027437987919106" />
		<edge id="-420872201#1" traveltime="0.00011252953924729026" />
		<edge id="-420872204#2" traveltime="5.07337962583171e-19" />
		<edge id="-420872205#2" traveltime="2.9994742665518814e-18" />
		<edge id="-420872209" traveltime="6.225251384061972e-21" />
		<edge id="-420890077#1" traveltime="1.6899699303204955e-09" />
		<edge id="-420894342#1" traveltime="2.085299746911139e-59" />
		<edge id="-420894362#1" traveltime="2.1929044053453752e-74" />
		<edge id="-420894363#1" traveltime="1.4062792138559007e-72" />
		<edge id="-420894365#1" traveltime="1.964216321818792e-77" />
		<edge id="-420894366#1" traveltime="8.190210666208016e-76" />
		<edge id="-420894367#1" traveltime="1.1098578517344478e-80" />
		<edge id="-420894368#1" traveltime="3.9836488688105e-71" />
		<edge id="-420894370#1" traveltime="2.3242135296762165e-85" />
		<edge id="-420894373#1" traveltime="4.016166038561993e-82" />
		<edge id="-420894374#1" traveltime="8.3058460937724e-69" />
		<edge id="-420894375#1" traveltime="9.733950262179313e-107" />
		<edge id="-420895732#1" traveltime="9.312648744442248e-60" />
		<edge id="-420895733#1" traveltime="1.9122030981887326e-108" />
		<edge id="-420898705#1" traveltime="7.543335670931984e-103" />
		<edge id="-420899371" traveltime="2.500869526315968e-60" />
		<edge id="-420900705#1" traveltime="1.2234239836491424e-106" />
		<edge id="-420904618#3" traveltime="4.90325212157334e-22" />
		<edge id="-420904620" traveltime="6.3601337008643455e-25" />
		<edge id="-420904621#1" traveltime="2.1455115156950628e-26" />
		<edge id="-420904658#2" traveltime="9.540140810737356e-14" />
		<edge id="-420904659#1" traveltime="1.0688044523312778e-11" />
		<edge id="-420908127#1" traveltime="6.300377035837872e-05" />
		<edge id="-420908135" traveltime="6.371651049116722e-06" />
		<edge id="-421824309#2" traveltime="1.167972328675884e-05" />
		<edge id="-421826773#1" traveltime="1.725871233092327e-05" />
		<edge id="-421832642#1" traveltime="1.7096444904603045e-06" />
		<edge id="-421851200#2" traveltime="8.437254456063111e-70" />
		<edge id="-421851201#2" traveltime="1.0939746608191828e-67" />
		<edge id="-421851202#1" traveltime="1.175257317930302e-75" />
		<edge id="-421852042#1" traveltime="5.038386294280781e-58" />
		<edge id="-42786502#3" traveltime="6.914560574807761e-07" />
		<edge id="-42786502#8" traveltime="4.473737912603618e-06" />
		<edge id="-428569356#1" traveltime="0.00025490596028432936" />
		<edge id="-438366913#3" traveltime="3.9137632721479613e-13" />
		<edge id="-438381568#1" traveltime="0.5413152614344927" />
		<edge id="-438381568#5" traveltime="0.20069087360292703" />
		<edge id="-438388090#1" traveltime="10.840403731374877" />
		<edge id="-438389785#1" traveltime="1.5550644499550916" />
		<edge id="-438389786#1" traveltime="0.6743647241471182" />
		<edge id="-438901171#1" traveltime="0.22213867689367373" />
		<edge id="-438901427#2" traveltime="10.785174002110642" />
		<edge id="-439801907#1" traveltime="1.0624912468818783e-129" />
		<edge id="-439801907#11" traveltime="7.524054036807827e-112" />
		<edge id="-439801907#3" traveltime="3.8238734431751945e-124" />
		<edge id="-439801907#5" traveltime="4.489307709198891e-120" />
		<edge id="-439801907#8" traveltime="7.465753329701102e-116" />
		<edge id="-439801908#2" traveltime="1.1759814249911025e-136" />
		<edge id="-439842799#2" traveltime="5.43531784660249e-06" />
		<edge id="-439842840" traveltime="7.211126891364771e-12" />
		<edge id="-440122912#1" traveltime="4.8695503384448457e-95" />
		<edge id="-440681437#2" traveltime="0.014587434724458424" />
		<edge id="-451954039#4" traveltime="7.170874260481283e-11" />
		<edge id="-451954039#8" traveltime="5.955720922821724e-12" />
		<edge id="-451954042#1" traveltime="9.512223425624203e-11" />
		<edge id="-451954043" traveltime="7.514002080679294e-12" />
		<edge id="-452339695#1" traveltime="4.471953991942259e-07" />
		<edge id="-454031476#1" traveltime="0.03640684500480341" />
		<edge id="-454031476#4" traveltime="0.06005799060612426" />
		<edge id="-458106348#3" traveltime="20.454929773023597" />
		<edge id="-460624363#1" traveltime="1.88038375695581e-15" />
		<edge id="-460657165#2" traveltime="2.5815266666386893e-147" />
		<edge id="-46111607#33" traveltime="1.2211281919849443e-145" />
		<edge id="-46139021#2" traveltime="6.3848174690491e-27" />
		<edge id="-46154281#6" traveltime="1.1144227546775949e-12" />
		<edge id="-46154287" traveltime="2.6928861804279994e-19" />
		<edge id="-46154291#3" traveltime="9.552539989078346e-08" />
		<edge id="-46154330#2" traveltime="2.763033485582778e-15" />
		<edge id="-46154330#5" traveltime="1.8484973125743095e-14" />
		<edge id="-46154330#8" traveltime="7.115820748838633e-14" />
		<edge id="-46154337#2" traveltime="1.1366610925753269e-24" />
		<edge id="-46154337#8" traveltime="7.231660178141641e-26" />
		<edge id="-46160106" traveltime="1.141866084281924e-09" />
		<edge id="-46160244#2" traveltime="3.0181219333877385e-09" />
		<edge id="-46160403#2" traveltime="2.5611474563159593e-25" />
		<edge id="-46160404#3" traveltime="1.990283057711966e-31" />
		<edge id="-46165812#4" traveltime="1.0976192248682643e-08" />
		<edge id="-46165813" traveltime="5.604030354311316e-08" />
		<edge id="-46165814" traveltime="4.404535454663261e-07" />
		<edge id="-46165815#1" traveltime="2.1293317703602466e-11" />
		<edge id="-46165816" traveltime="4.0912733135596716e-19" />
		<edge id="-46165819#1" traveltime="1.5829803531417789e-27" />
		<edge id="-46165821#1" traveltime="1.3469822794890668e-25" />
		<edge id="-46171888#1" traveltime="1.825328612018909e-15" />
		<edge id="-46201651" traveltime="1.2801300359205484e-05" />
		<edge id="-46201655#1" traveltime="0.007696985522834016" />
		<edge id="-46201668#11" traveltime="0.029992393492460773" />
		<edge id="-46201668#3" traveltime="9.464981759757391e-05" />
		<edge id="-46201668#6" traveltime="0.0016921864062114478" />
		<edge id="-46201679#2" traveltime="2.7780382921280577e-08" />
		<edge id="-46211834#1" traveltime="6.781842043624489e-82" />
		<edge id="-46211835#2" traveltime="1.345057383297297e-76" />
		<edge id="-46211840#2" traveltime="3.2192475842138426e-105" />
		<edge id="-46211840#5" traveltime="8.652821150122695e-102" />
		<edge id="-46211840#8" traveltime="1.5684228496570746e-98" />
		<edge id="-46211841#1" traveltime="3.9372847274607815e-75" />
		<edge id="-46211851#1" traveltime="0.07347369857940282" />
		<edge id="-462421592#1" traveltime="7.325684295906656e-10" />
		<edge id="-46332295#12" traveltime="21.79214201356504" />
		<edge id="-46332295#3" traveltime="46.72506237959263" />
		<edge id="-46332295#6" traveltime="73.05548040996487" />
		<edge id="-46332295#9" traveltime="53.1931883533992" />
		<edge id="-46332308#1" traveltime="0.0002765271671939445" />
		<edge id="-46334605#15" traveltime="5.7089458465670215e-15" />
		<edge id="-46334605#18" traveltime="1.6649703797374956e-17" />
		<edge id="-46334605#3" traveltime="6.348026128697209e-14" />
		<edge id="-46348787#4" traveltime="4.2435905700950727e-16" />
		<edge id="-46349386#2" traveltime="1.2990987981188504e-07" />
		<edge id="-46349386#8" traveltime="1.5896657706496712e-05" />
		<edge id="-46350695#2" traveltime="0.0004540922553237701" />
		<edge id="-46431825#3" traveltime="7.045425066006678e-07" />
		<edge id="-46431825#6" traveltime="1.95915908276815e-07" />
		<edge id="-46469725" traveltime="9.901950725293874e-32" />
		<edge id="-46481744#1" traveltime="1.9416254454770977e-16" />
		<edge id="-46481744#4" traveltime="3.613771319750372e-15" />
		<edge id="-46481754#2" traveltime="1.032726610412864e-14" />
		<edge id="-46482539#1" traveltime="3.2128524836366483e-22" />
		<edge id="-464963297" traveltime="0.020932447382794445" />
		<edge id="-464964299#2" traveltime="0.013276978087942747" />
		<edge id="-465101198#1" traveltime="0.6267193622669245" />
		<edge id="-46518740" traveltime="6.898403111814265e-54" />
		<edge id="-46520921#2" traveltime="4.3460740629524847e-29" />
		<edge id="-46520921#5" traveltime="1.6079744141572661e-31" />
		<edge id="-46520921#8" traveltime="1.7564529579361912e-33" />
		<edge id="-46524947#4" traveltime="1.3643624018274025e-101" />
		<edge id="-46524959#1" traveltime="3.793393322908118e-101" />
		<edge id="-46524969#1" traveltime="6.4259222659592e-85" />
		<edge id="-46524975#3" traveltime="1.6625240469955533e-86" />
		<edge id="-46524983#1" traveltime="6.411776525144434e-105" />
		<edge id="-46524998" traveltime="2.1181256242628596e-106" />
		<edge id="-46525019#2" traveltime="3.445339029728915e-79" />
		<edge id="-46525029#1" traveltime="3.4930346019355806e-80" />
		<edge id="-46526965#2" traveltime="5.904358870580338e-71" />
		<edge id="-46529274#3" traveltime="3.1598879802192173e-72" />
		<edge id="-46538396#1" traveltime="1.2232928031589428e-66" />
		<edge id="-46538405#1" traveltime="1.1233071788031218e-62" />
		<edge id="-46546737#1" traveltime="8.34935145211214e-139" />
		<edge id="-46579579#4" traveltime="8.775689862797917e-71" />
		<edge id="-46694751#1" traveltime="1.0376800654068192e-71" />
		<edge id="-46694753#2" traveltime="2.9016077385121475e-108" />
		<edge id="-46694753#6" traveltime="4.0545844077089357e-110" />
		<edge id="-46694753#9" traveltime="5.008930043840554e-112" />
		<edge id="-46694758#1" traveltime="1.0009261591157296e-135" />
		<edge id="-46694759#2" traveltime="3.168639227891235e-131" />
		<edge id="-46694765#1" traveltime="1.2504790504747895e-164" />
		<edge id="-466956273#1" traveltime="4.478710074947682" />
		<edge id="-467222856#2" traveltime="12.018612851452776" />
		<edge id="-474304539#2" traveltime="8.164989168332368e-68" />
		<edge id="-474304540#1" traveltime="3.886235417923792e-67" />
		<edge id="-474304540#4" traveltime="6.401462348827841e-70" />
		<edge id="-477151469#5" traveltime="0.04646052502551185" />
		<edge id="-477151469#9" traveltime="0.02870923916949397" />
		<edge id="-47795999#2" traveltime="8.927737710364474e-80" />
		<edge id="-47796678" traveltime="8.392939012856645e-07" />