<?xml version="1.0" encoding="UTF-8"?>

<!-- generated on 2025-08-04 17:25:33.029379 by randomTrips.py UNKNOWN
<configuration>
    <net-file value="manhattan_micro/osm.net.xml"/>
    <output-trip-file value="manhattan_micro/random_trips_3600_id30.rou.xml"/>
    <random value="True"/>
    <validate value="True"/>
    <insertion-density value="30.0"/>
</configuration>
-->

<routes xmlns:xsi="http://www.w3.org/2001/XMLSchema-instance" xsi:noNamespaceSchemaLocation="http://sumo.dlr.de/xsd/routes_file.xsd">
    <trip id="0" depart="0.00" from="494221658#0" to="32972072#0"/>
    <trip id="1" depart="0.20" from="-125525171#4" to="46201677#0"/>
    <trip id="2" depart="0.41" from="5669639#4" to="-5672991#9"/>
    <trip id="3" depart="0.61" from="-904809350#2" to="396444294#0"/>
    <trip id="4" depart="0.82" from="-438389785#1" to="420809420#5"/>
    <trip id="5" depart="1.02" from="815019390#0" to="515879032#0"/>
    <trip id="6" depart="1.23" from="619277987#2" to="696491645#0"/>
    <trip id="7" depart="1.43" from="46154300#0" to="659714534#1"/>
    <trip id="8" depart="1.63" from="-317400962#5" to="963551551#0"/>
    <trip id="9" depart="1.84" from="125479715#6" to="321993367#0"/>
    <trip id="10" depart="2.04" from="767683108#0" to="5672434"/>
    <trip id="11" depart="2.25" from="496986998#0" to="524817693#0"/>
    <trip id="12" depart="2.45" from="22897720#0" to="5669662#0"/>
    <trip id="13" depart="2.66" from="-46154330#5" to="194923761#1"/>
    <trip id="14" depart="2.86" from="5671717#0" to="-1126410242#1"/>
    <trip id="15" depart="3.07" from="68668546#3" to="5670814#9"/>
    <trip id="16" depart="3.27" from="-68668559#8" to="1027227121#0"/>
    <trip id="17" depart="3.47" from="485165667#0" to="256902830#0"/>
    <trip id="18" depart="3.68" from="396444294#22" to="806341216#0"/>
    <trip id="19" depart="3.88" from="22909136" to="591772210#3"/>
    <trip id="20" depart="4.09" from="5669882#3" to="-1080982431#2"/>
    <trip id="21" depart="4.29" from="5673211#0" to="1127573674#0"/>
    <trip id="22" depart="4.50" from="46160225#5" to="-770524298#3"/>
    <trip id="23" depart="4.70" from="32935108" to="5672402#2"/>
    <trip id="24" depart="4.90" from="95181768#2" to="989267823"/>
    <trip id="25" depart="5.11" from="447001271#1" to="479642039#0"/>
    <trip id="26" depart="5.31" from="357946354#3" to="226040999#0"/>
    <trip id="27" depart="5.52" from="5669993#3" to="616745176#0"/>
    <trip id="28" depart="5.72" from="1202586284#3" to="496983399#0"/>
    <trip id="29" depart="5.93" from="46201642#0" to="460606347#0"/>
    <trip id="30" depart="6.13" from="997455683" to="169267538#0"/>
    <trip id="31" depart="6.33" from="847952488#1" to="420351724#0"/>
    <trip id="32" depart="6.54" from="799818237" to="46610721#0"/>
    <trip id="33" depart="6.74" from="68668541#3" to="1135576553#0"/>
    <trip id="34" depart="6.95" from="1088325197#0" to="451954041#0"/>
    <trip id="35" depart="7.15" from="226040991#0" to="420903239#0"/>
    <trip id="36" depart="7.36" from="5670087#0" to="46139034#5"/>
    <trip id="37" depart="7.56" from="908825796" to="989267825#3"/>
    <trip id="38" depart="7.77" from="196117042#6" to="5673323#0"/>
    <trip id="39" depart="7.97" from="1254253169#0" to="46154296#8"/>
    <trip id="40" depart="8.17" from="974611018#0" to="127691872#6"/>
    <trip id="41" depart="8.38" from="420908133#0" to="5669882#3"/>
    <trip id="42" depart="8.58" from="1127576536#0" to="5670719#3"/>
    <trip id="43" depart="8.79" from="5671354#0" to="125436141#4"/>
    <trip id="44" depart="8.99" from="884400279#0" to="433394637#0"/>
    <trip id="45" depart="9.20" from="439933945#3" to="46154337#0"/>
    <trip id="46" depart="9.40" from="46139036#0" to="1067728688#0"/>
    <trip id="47" depart="9.60" from="986808853#0" to="420526338#0"/>
    <trip id="48" depart="9.81" from="955301425#3" to="-438389785#1"/>
    <trip id="49" depart="10.01" from="195743555#0" to="127693383#0"/>
    <trip id="50" depart="10.22" from="5670920#0" to="1274636982#3"/>
    <trip id="51" depart="10.42" from="5671608#6" to="166038145#0"/>
    <trip id="52" depart="10.63" from="222299276#0" to="1237429425#0"/>
    <trip id="53" depart="10.83" from="-68668559#8" to="451954042#0"/>
    <trip id="54" depart="11.03" from="963551553#14" to="5670773#0"/>
    <trip id="55" depart="11.24" from="1032031974#0" to="1088325196#0"/>
    <trip id="56" depart="11.44" from="194923790#0" to="1080873868#0"/>
    <trip id="57" depart="11.65" from="5671457#3" to="195745914#0"/>
    <trip id="58" depart="11.85" from="464522037#0" to="46481095#9"/>
    <trip id="59" depart="12.06" from="181375404#0" to="852992107#0"/>
    <trip id="60" depart="12.26" from="157012386#0" to="368938761#0"/>
    <trip id="61" depart="12.47" from="1022184081#0" to="992141077#6"/>
    <trip id="62" depart="12.67" from="1187625139" to="992141077#3"/>
    <trip id="63" depart="12.87" from="196117059#0" to="454031476#0"/>
    <trip id="64" depart="13.08" from="378363223#0" to="464683316#0"/>
    <trip id="65" depart="13.28" from="597821266#9" to="646635889#0"/>
    <trip id="66" depart="13.49" from="492148701#2" to="420598337#0"/>
    <trip id="67" depart="13.69" from="-273019810#1" to="5671608#3"/>
    <trip id="68" depart="13.90" from="1254361808#0" to="1149695048#0"/>
    <trip id="69" depart="14.10" from="36801355#1" to="-993797875#2"/>
    <trip id="70" depart="14.30" from="-22937242" to="420809417#0"/>
    <trip id="71" depart="14.51" from="194923796#0" to="-195743267#1"/>
    <trip id="72" depart="14.71" from="496989303#0" to="-511699183#4"/>
    <trip id="73" depart="14.92" from="655255187#7" to="420530114#6"/>
    <trip id="74" depart="15.12" from="46469721" to="492148701#2"/>
    <trip id="75" depart="15.33" from="-587038050#2" to="451905565#3"/>
    <trip id="76" depart="15.53" from="1252123717#0" to="1238156664#0"/>
    <trip id="77" depart="15.73" from="5672409#0" to="463035843#0"/>
    <trip id="78" depart="15.94" from="799833496" to="352705238#5"/>
    <trip id="79" depart="16.14" from="157012386#4" to="22927462#11"/>
    <trip id="80" depart="16.35" from="1021949732#0" to="597821266#2"/>
    <trip id="81" depart="16.55" from="221157083#0" to="-997125811#2"/>
    <trip id="82" depart="16.76" from="799407328#4" to="46160244#0"/>
    <trip id="83" depart="16.96" from="5670076#0" to="1049837953"/>
    <trip id="84" depart="17.17" from="420809420#4" to="226040993#0"/>
    <trip id="85" depart="17.37" from="388240124#13" to="-46201668#6"/>
    <trip id="86" depart="17.57" from="480112480#0" to="588293370#1"/>
    <trip id="87" depart="17.78" from="988980354#0" to="413054857#0"/>
    <trip id="88" depart="17.98" from="556311124#19" to="188559800#6"/>
    <trip id="89" depart="18.19" from="-525698215#1" to="5673342#0"/>
    <trip id="90" depart="18.39" from="-5671620#2" to="505034229#0"/>
    <trip id="91" depart="18.60" from="1117942067#0" to="456313635"/>
    <trip id="92" depart="18.80" from="194926856#0" to="466956273#0"/>
    <trip id="93" depart="19.00" from="1080873865" to="32938997#0"/>
    <trip id="94" depart="19.21" from="5670942#2" to="5669669#4"/>
    <trip id="95" depart="19.41" from="5670932#0" to="68674968#0"/>
    <trip id="96" depart="19.62" from="496989957#0" to="480682393#0"/>
    <trip id="97" depart="19.82" from="1021949729#0" to="5669976#0"/>
    <trip id="98" depart="20.03" from="614572151#0" to="68668539#0"/>
    <trip id="99" depart="20.23" from="5670920#0" to="474054794#0"/>
    <trip id="100" depart="20.43" from="587061854#0" to="496982789#2"/>
    <trip id="101" depart="20.64" from="420901922#0" to="1088325195#0"/>
    <trip id="102" depart="20.84" from="-5670574#1" to="420809420#7"/>
    <trip id="103" depart="21.05" from="5672377#3" to="420352241#0"/>
    <trip id="104" depart="21.25" from="1051841853#1" to="420598402"/>
    <trip id="105" depart="21.46" from="968388395#0" to="763121491"/>
    <trip id="106" depart="21.66" from="25564580#0" to="5669962#11"/>
    <trip id="107" depart="21.87" from="5670578#15" to="515879032#0"/>
    <trip id="108" depart="22.07" from="957085297" to="458106346#0"/>
    <trip id="109" depart="22.27" from="5671413#0" to="496986803#3"/>
    <trip id="110" depart="22.48" from="954178926#0" to="1021051876#0"/>
    <trip id="111" depart="22.68" from="1088005912#0" to="5673533"/>
    <trip id="112" depart="22.89" from="954178926#0" to="420522049#0"/>
    <trip id="113" depart="23.09" from="542255948#0" to="221687792#0"/>
    <trip id="114" depart="23.30" from="-477151469#5" to="1136393331#0"/>
    <trip id="115" depart="23.50" from="814259710#0" to="46422586#0"/>
    <trip id="116" depart="23.70" from="5673077#2" to="420809417#0"/>
    <trip id="117" depart="23.91" from="39956203#3" to="1021068251#0"/>
    <trip id="118" depart="24.11" from="479642043#6" to="46334599#0"/>
    <trip id="119" depart="24.32" from="421852618#0" to="-451954042#1"/>
    <trip id="120" depart="24.52" from="-986157727" to="194926850#0"/>
    <trip id="121" depart="24.73" from="479642036#0" to="813970416#0"/>
    <trip id="122" depart="24.93" from="492489884#0" to="32936385#0"/>
    <trip id="123" depart="25.13" from="-46154330#2" to="5670773#0"/>
    <trip id="124" depart="25.34" from="195743554#7" to="46224832#0"/>
    <trip id="125" depart="25.54" from="420358895#0" to="-195743138#2"/>
    <trip id="126" depart="25.75" from="1266830886#3" to="5671659#0"/>
    <trip id="127" depart="25.95" from="454963832#0" to="1057563582"/>
    <trip id="128" depart="26.16" from="852992100#0" to="1149701654#2"/>
    <trip id="129" depart="26.36" from="46349390#0" to="955301425#0"/>
    <trip id="130" depart="26.57" from="-1274636982#2" to="22897633#6"/>
    <trip id="131" depart="26.77" from="904809346#0" to="195743195#0"/>
    <trip id="132" depart="26.97" from="997125811#0" to="-813956617#11"/>
    <trip id="133" depart="27.18" from="1135361170#0" to="770524299#0"/>
    <trip id="134" depart="27.38" from="663499005#0" to="-454031476#1"/>
    <trip id="135" depart="27.59" from="5671661#3" to="32935108"/>
    <trip id="136" depart="27.79" from="396444294#17" to="420352251#0"/>
    <trip id="137" depart="28.00" from="439933932#0" to="222299276#3"/>
    <trip id="138" depart="28.20" from="542257982#0" to="845950436#0"/>
    <trip id="139" depart="28.40" from="22904055#0" to="655255187#5"/>
    <trip id="140" depart="28.61" from="156994961#3" to="68668541#0"/>
    <trip id="141" depart="28.81" from="446864091#13" to="554083352"/>
    <trip id="142" depart="29.02" from="858965315#0" to="5672896#9"/>
    <trip id="143" depart="29.22" from="5671661#0" to="46171883#0"/>
    <trip id="144" depart="29.43" from="663509704#0" to="-496989959#1"/>
    <trip id="145" depart="29.63" from="125436141#0" to="5669639#0"/>
    <trip id="146" depart="29.83" from="112116235#5" to="420908129#0"/>
    <trip id="147" depart="30.04" from="5669866#0" to="5672922#3"/>
    <trip id="148" depart="30.24" from="1128358854" to="420903240#0"/>
    <trip id="149" depart="30.45" from="450896752#0" to="420496529#0"/>
    <trip id="150" depart="30.65" from="5671322#0" to="5672410#0"/>
    <trip id="151" depart="30.86" from="515879032#0" to="420809419#5"/>
    <trip id="152" depart="31.06" from="-480682391#1" to="993797882"/>
    <trip id="153" depart="31.27" from="993795184" to="496986998#0"/>
    <trip id="154" depart="31.47" from="5671436#2" to="1151034558#2"/>
    <trip id="155" depart="31.67" from="40879221#0" to="630828596#0"/>
    <trip id="156" depart="31.88" from="46139039#3" to="420904657#0"/>
    <trip id="157" depart="32.08" from="458177129#0" to="125436141#4"/>
    <trip id="158" depart="32.29" from="413050334#4" to="5670728#2"/>
    <trip id="159" depart="32.49" from="-542096278#3" to="194923761#0"/>
    <trip id="160" depart="32.70" from="-481047237#2" to="-1080982427#1"/>
    <trip id="161" depart="32.90" from="356140743#0" to="46431828"/>
    <trip id="162" depart="33.10" from="195743179#0" to="36271338#0"/>
    <trip id="163" depart="33.31" from="-5669892#12" to="5671341#3"/>
    <trip id="164" depart="33.51" from="711924577" to="1197069043#0"/>
    <trip id="165" depart="33.72" from="352705238#2" to="5671140#0"/>
    <trip id="166" depart="33.92" from="-439842840" to="1272153400#0"/>
    <trip id="167" depart="34.13" from="464683339#3" to="256902827#0"/>
    <trip id="168" depart="34.33" from="1015939517#0" to="5670418#3"/>
    <trip id="169" depart="34.53" from="-496978218#2" to="-5670254#2"/>
    <trip id="170" depart="34.74" from="420890085#0" to="46334602#0"/>
    <trip id="171" depart="34.94" from="1080319437#0" to="1014414688#3"/>
    <trip id="172" depart="35.15" from="1025734022#0" to="54689817#6"/>
    <trip id="173" depart="35.35" from="988994184" to="-36801165#2"/>
    <trip id="174" depart="35.56" from="165777951#0" to="-46201679#2"/>
    <trip id="175" depart="35.76" from="438363729#2" to="46154330#3"/>
    <trip id="176" depart="35.97" from="1147907300#0" to="846127259#4"/>
    <trip id="177" depart="36.17" from="414894542#4" to="420890080#0"/>
    <trip id="178" depart="36.37" from="421832648" to="889114533#9"/>
    <trip id="179" depart="36.58" from="1151033517#3" to="44225576#0"/>
    <trip id="180" depart="36.78" from="5669206" to="464847780"/>
    <trip id="181" depart="36.99" from="439842831#9" to="-397839400#9"/>
    <trip id="182" depart="37.19" from="-46431825#6" to="357946354#6"/>
    <trip id="183" depart="37.40" from="497746843#0" to="421825696"/>
    <trip id="184" depart="37.60" from="25167210#4" to="463035747"/>
    <trip id="185" depart="37.80" from="525038147#0" to="1051841855#4"/>
    <trip id="186" depart="38.01" from="195743165#0" to="706833047#0"/>
    <trip id="187" depart="38.21" from="46139048#4" to="46154286#0"/>
    <trip id="188" depart="38.42" from="-5672646#2" to="-420598407#2"/>
    <trip id="189" depart="38.62" from="1202638283#0" to="5669860#0"/>
    <trip id="190" depart="38.83" from="1238431052#3" to="-438381568#1"/>
    <trip id="191" depart="39.03" from="5670440#0" to="520532096#0"/>
    <trip id="192" depart="39.23" from="955261513#0" to="697704857#0"/>
    <trip id="193" depart="39.44" from="222299238#0" to="464543615#0"/>
    <trip id="194" depart="39.64" from="954955257" to="5672604#3"/>
    <trip id="195" depart="39.85" from="46332295#7" to="542257982#0"/>
    <trip id="196" depart="40.05" from="587038101#0" to="5670736#0"/>
    <trip id="197" depart="40.26" from="68668526#0" to="118400729#0"/>
    <trip id="198" depart="40.46" from="1080982433#0" to="5670079#0"/>
    <trip id="199" depart="40.67" from="68668546#3" to="496982627#0"/>
    <trip id="200" depart="40.87" from="31984136#0" to="1080964114#0"/>
    <trip id="201" depart="41.07" from="5673526" to="420598256#0"/>
    <trip id="202" depart="41.28" from="420354145#0" to="420598373#0"/>
    <trip id="203" depart="41.48" from="-388316170#2" to="226041020#0"/>
    <trip id="204" depart="41.69" from="5673613#0" to="421825696"/>
    <trip id="205" depart="41.89" from="944692442#0" to="480112479#0"/>
    <trip id="206" depart="42.10" from="1271746676#0" to="589494594#0"/>
    <trip id="207" depart="42.30" from="5671425#0" to="910484222#0"/>
    <trip id="208" depart="42.50" from="1080982438#0" to="1151034558#2"/>
    <trip id="209" depart="42.71" from="196117051#3" to="667597422#0"/>
    <trip id="210" depart="42.91" from="351638330#0" to="-560788342#3"/>
    <trip id="211" depart="43.12" from="22904055#0" to="524817693#0"/>
    <trip id="212" depart="43.32" from="1188730083#0" to="1266830890#3"/>
    <trip id="213" depart="43.53" from="-908150696#2" to="5669945#0"/>
    <trip id="214" depart="43.73" from="451954060#0" to="25199870#4"/>
    <trip id="215" depart="43.93" from="-276670360#3" to="439933945#0"/>
    <trip id="216" depart="44.14" from="46171887#0" to="847931436#0"/>
    <trip id="217" depart="44.34" from="194923802#2" to="273019814#2"/>
    <trip id="218" depart="44.55" from="955301425#3" to="420522049#5"/>
    <trip id="219" depart="44.75" from="989267827#0" to="-46154330#5"/>
    <trip id="220" depart="44.96" from="420598323#0" to="852992111#0"/>
    <trip id="221" depart="45.16" from="978675658#0" to="526839039#0"/>
    <trip id="222" depart="45.37" from="-1135342275#4" to="5669962#16"/>
    <trip id="223" depart="45.57" from="541345307#0" to="1018454469#0"/>
    <trip id="224" depart="45.77" from="413050334#0" to="812936280#0"/>
    <trip id="225" depart="45.98" from="813956617#0" to="420809438#0"/>
    <trip id="226" depart="46.18" from="607091411#12" to="388284037#0"/>
    <trip id="227" depart="46.39" from="22898269#0" to="1262278385"/>
    <trip id="228" depart="46.59" from="1051750428#0" to="-524361790"/>
    <trip id="229" depart="46.80" from="889114533#3" to="196117028#9"/>
    <trip id="230" depart="47.00" from="420598339#0" to="-584971524#2"/>
    <trip id="231" depart="47.20" from="524395517#0" to="-584971510#1"/>
    <trip id="232" depart="47.41" from="-813956617#8" to="630828556#0"/>
    <trip id="233" depart="47.61" from="939433105" to="466956274#0"/>
    <trip id="234" depart="47.82" from="46201668#7" to="5669633#0"/>
    <trip id="235" depart="48.02" from="451905565#3" to="-988992295#2"/>
    <trip id="236" depart="48.23" from="32936733" to="-467222856#2"/>
    <trip id="237" depart="48.43" from="947916171#0" to="-196117014#1"/>
    <trip id="238" depart="48.63" from="727644279#0" to="1051841854#0"/>
    <trip id="239" depart="48.84" from="226040999#0" to="5670011#0"/>
    <trip id="240" depart="49.04" from="1053554760#0" to="5671061#0"/>
    <trip id="241" depart="49.25" from="125528659#0" to="5672899#6"/>
    <trip id="242" depart="49.45" from="1188730083#0" to="1227588718#0"/>
    <trip id="243" depart="49.66" from="46160225#5" to="440681437#0"/>
    <trip id="244" depart="49.86" from="5669938#3" to="1042964169#0"/>
    <trip id="245" depart="50.07" from="32938997#3" to="46139033#0"/>
    <trip id="246" depart="50.27" from="439842831#3" to="524361790"/>
    <trip id="247" depart="50.47" from="46226332" to="813970417#0"/>
    <trip id="248" depart="50.68" from="194923798#0" to="5669857#0"/>
    <trip id="249" depart="50.88" from="124814435#10" to="803110016#0"/>
    <trip id="250" depart="51.09" from="1032459844#0" to="1271581110#0"/>
    <trip id="251" depart="51.29" from="541351705#0" to="480682392#0"/>
    <trip id="252" depart="51.50" from="46492638#0" to="1187622115"/>
    <trip id="253" depart="51.70" from="1021949729#0" to="222299277#0"/>
    <trip id="254" depart="51.90" from="413050334#3" to="-420522695#2"/>
    <trip id="255" depart="52.11" from="496986803#3" to="1268097052#0"/>
    <trip id="256" depart="52.31" from="496977101#4" to="-1080978586#0"/>
    <trip id="257" depart="52.52" from="46482541#0" to="420890093"/>
    <trip id="258" depart="52.72" from="1268090833#0" to="968428932"/>
    <trip id="259" depart="52.93" from="5672528#0" to="1202586284#0"/>
    <trip id="260" depart="53.13" from="1187622116" to="1053369944#0"/>
    <trip id="261" depart="53.33" from="421825696" to="1021037338"/>
    <trip id="262" depart="53.54" from="779661114#0" to="-5673511"/>
    <trip id="263" depart="53.74" from="127693102#0" to="194923778#0"/>
    <trip id="264" depart="53.95" from="1080873865" to="963975252"/>
    <trip id="265" depart="54.15" from="5671713#4" to="1185872416#0"/>
    <trip id="266" depart="54.36" from="492148703#0" to="46610721#0"/>
    <trip id="267" depart="54.56" from="5672988#0" to="46348767#0"/>
    <trip id="268" depart="54.77" from="-1159051944#1" to="5670532#0"/>
    <trip id="269" depart="54.97" from="-167922072#1" to="-420872201#1"/>
    <trip id="270" depart="55.17" from="46171889#3" to="1136699158#0"/>
    <trip id="271" depart="55.38" from="946653471#3" to="1051550982#0"/>
    <trip id="272" depart="55.58" from="939444709" to="68668526#0"/>
    <trip id="273" depart="55.79" from="5672911#8" to="5670584#0"/>
    <trip id="274" depart="55.99" from="473884145#0" to="439933934#0"/>
    <trip id="275" depart="56.20" from="458106345#0" to="1059551869#0"/>
    <trip id="276" depart="56.40" from="464683327#0" to="5669304#1"/>
    <trip id="277" depart="56.60" from="496983397#0" to="1202638284#0"/>
    <trip id="278" depart="56.81" from="1088325195#0" to="983849667#0"/>
    <trip id="279" depart="57.01" from="439842761#0" to="36806659"/>
    <trip id="280" depart="57.22" from="46334599#9" to="1207834767#0"/>
    <trip id="281" depart="57.42" from="5672803#0" to="403405990#0"/>
    <trip id="282" depart="57.63" from="1274636982#6" to="46334599#3"/>
    <trip id="283" depart="57.83" from="420358887#0" to="188559800#3"/>
    <trip id="284" depart="58.03" from="467222812#9" to="1051734607#0"/>
    <trip id="285" depart="58.24" from="-68668559#8" to="40337681#0"/>
    <trip id="286" depart="58.44" from="22914182#0" to="479642043#3"/>
    <trip id="287" depart="58.65" from="396444294#17" to="1266830893#0"/>
    <trip id="288" depart="58.85" from="455501328#0" to="-420522443#2"/>
    <trip id="289" depart="59.06" from="845950436#0" to="505317783#0"/>
    <trip id="290" depart="59.26" from="1069297909#0" to="420888140#0"/>
    <trip id="291" depart="59.47" from="-68668559#8" to="-250267912#1"/>
    <trip id="292" depart="59.67" from="989390267#0" to="-420872204#2"/>
    <trip id="293" depart="59.87" from="-699843297" to="536917119#0"/>
    <trip id="294" depart="60.08" from="451954042#0" to="-75359816"/>
    <trip id="295" depart="60.28" from="974611018#0" to="-420526338#2"/>
    <trip id="296" depart="60.49" from="890023178#0" to="222299248#0"/>
    <trip id="297" depart="60.69" from="-46431825#6" to="46348768#0"/>
    <trip id="298" depart="60.90" from="479642033#0" to="989793292#0"/>
    <trip id="299" depart="61.10" from="465256868" to="799407328#9"/>
    <trip id="300" depart="61.30" from="-1229513732#1" to="-1015679930#1"/>
    <trip id="301" depart="61.51" from="799818237" to="420809419#5"/>
    <trip id="302" depart="61.71" from="630828556#0" to="1167924989#0"/>
    <trip id="303" depart="61.92" from="543902513#0" to="1014414688#0"/>
    <trip id="304" depart="62.12" from="-616745176#2" to="1266830892#0"/>
    <trip id="305" depart="62.33" from="32935551#0" to="439842838#0"/>
    <trip id="306" depart="62.53" from="440681436#0" to="-403405990#2"/>
    <trip id="307" depart="62.73" from="396444295#3" to="22927486#2"/>
    <trip id="308" depart="62.94" from="1296664633#0" to="125525165#0"/>
    <trip id="309" depart="63.14" from="847873802#0" to="25163419#0"/>
    <trip id="310" depart="63.35" from="439933948#4" to="727644280#3"/>
    <trip id="311" depart="63.55" from="-165777195#1" to="420908134"/>
    <trip id="312" depart="63.76" from="1202586282#0" to="799818237"/>
    <trip id="313" depart="63.96" from="957524734" to="1040863518#0"/>
    <trip id="314" depart="64.16" from="384649120#11" to="5672937#0"/>
    <trip id="315" depart="64.37" from="788602259" to="1296261920"/>
    <trip id="316" depart="64.57" from="1237670402#0" to="1030283845"/>
    <trip id="317" depart="64.78" from="524387551#3" to="420598407#0"/>
    <trip id="318" depart="64.98" from="511699184#0" to="556075523#0"/>
    <trip id="319" depart="65.19" from="5671307#2" to="5672604#3"/>
    <trip id="320" depart="65.39" from="1202638287#3" to="5669978#2"/>
    <trip id="321" depart="65.60" from="584971524#0" to="1149728034#0"/>
    <trip id="322" depart="65.80" from="1135614655#0" to="1052686445#0"/>
    <trip id="323" depart="66.00" from="847920086#0" to="420351725#0"/>
    <trip id="324" depart="66.21" from="496993765#3" to="655255187#3"/>
    <trip id="325" depart="66.41" from="492148705#0" to="847994494#0"/>
    <trip id="326" depart="66.62" from="542255948#0" to="446864091#1"/>
    <trip id="327" depart="66.82" from="955301423#5" to="68674968#6"/>
    <trip id="328" depart="67.03" from="988994184" to="-525656841#2"/>
    <trip id="329" depart="67.23" from="5673157#1" to="5671404#2"/>
    <trip id="330" depart="67.43" from="-452339695#1" to="5670092#30"/>
    <trip id="331" depart="67.64" from="68668546#3" to="125479715#0"/>
    <trip id="332" depart="67.84" from="813956617#9" to="315174425#2"/>
    <trip id="333" depart="68.05" from="560788342#4" to="420903240#0"/>
    <trip id="334" depart="68.25" from="-1262278385" to="46349393#0"/>
    <trip id="335" depart="68.46" from="945473888#0" to="5671315#0"/>
    <trip id="336" depart="68.66" from="788602263#0" to="729972924#0"/>
    <trip id="337" depart="68.86" from="447001270#0" to="1173024583#0"/>
    <trip id="338" depart="69.07" from="-528759347" to="420598262#0"/>
    <trip id="339" depart="69.27" from="480682397#0" to="420809411#0"/>
    <trip id="340" depart="69.48" from="125479715#3" to="68674961#3"/>
    <trip id="341" depart="69.68" from="959157334" to="958158459"/>
    <trip id="342" depart="69.89" from="226041016#3" to="-1088325193#1"/>
    <trip id="343" depart="70.09" from="468414634#3" to="464683339#0"/>
    <trip id="344" depart="70.30" from="1036714797#0" to="846137635#0"/>
    <trip id="345" depart="70.50" from="1002798653#0" to="-438381568#5"/>
    <trip id="346" depart="70.70" from="5670652#0" to="194923776#0"/>
    <trip id="347" depart="70.91" from="847931436#16" to="485556247#0"/>
    <trip id="348" depart="71.11" from="5670232#0" to="464522037#0"/>
    <trip id="349" depart="71.32" from="420901922#0" to="520532096#0"/>
    <trip id="350" depart="71.52" from="1123877141#0" to="-196117075#2"/>
    <trip id="351" depart="71.73" from="654560917#0" to="226040999#0"/>
    <trip id="352" depart="71.93" from="446864091#10" to="118714476#4"/>
    <trip id="353" depart="72.13" from="46348767#3" to="420810621#0"/>
    <trip id="354" depart="72.34" from="847931436#16" to="485165666"/>
    <trip id="355" depart="72.54" from="525656852#0" to="524817694#0"/>
    <trip id="356" depart="72.75" from="-958264262#1" to="496983398#0"/>
    <trip id="357" depart="72.95" from="413054857#0" to="5672893#0"/>
    <trip id="358" depart="73.16" from="5669486#0" to="5672550#0"/>
    <trip id="359" depart="73.36" from="46334602#1" to="801918545#0"/>
    <trip id="360" depart="73.56" from="5671172#2" to="22927946#0"/>
    <trip id="361" depart="73.77" from="-194923763#3" to="847939166#0"/>
    <trip id="362" depart="73.97" from="1052627487#0" to="1135361169#0"/>
    <trip id="363" depart="74.18" from="1149701654#2" to="-489019753"/>
    <trip id="364" depart="74.38" from="5670366#0" to="46610725#0"/>
    <trip id="365" depart="74.59" from="837515833#0" to="1031400325#0"/>
    <trip id="366" depart="74.79" from="845781114#13" to="813970416#3"/>
    <trip id="367" depart="75.00" from="22898269#0" to="803047267#0"/>
    <trip id="368" depart="75.20" from="458106348#0" to="5671314#4"/>
    <trip id="369" depart="75.40" from="1088327054" to="420888140#0"/>
    <trip id="370" depart="75.61" from="5670792#0" to="1051841855#0"/>
    <trip id="371" depart="75.81" from="616745176#0" to="5672146#0"/>
    <trip id="372" depart="76.02" from="194923786#3" to="-1203376570#2"/>
    <trip id="373" depart="76.22" from="1128358854" to="-1252123717#1"/>
    <trip id="374" depart="76.43" from="36185650" to="195743264#2"/>
    <trip id="375" depart="76.63" from="-653406301#1" to="122660459"/>
    <trip id="376" depart="76.83" from="5673452" to="954520388#0"/>
    <trip id="377" depart="77.04" from="194923808#3" to="25162679#4"/>
    <trip id="378" depart="77.24" from="474635898#0" to="32934355"/>
    <trip id="379" depart="77.45" from="630828594#0" to="474635905#0"/>
    <trip id="380" depart="77.65" from="495946403#0" to="-46165816"/>
    <trip id="381" depart="77.86" from="5670942#0" to="190550014#2"/>
    <trip id="382" depart="78.06" from="5672528#0" to="68325062#0"/>
    <trip id="383" depart="78.26" from="195743557#7" to="1151033517#0"/>
    <trip id="384" depart="78.47" from="1136699158#0" to="5669866#8"/>
    <trip id="385" depart="78.67" from="588157329#0" to="5672965#0"/>
    <trip id="386" depart="78.88" from="22897633#3" to="195834894#0"/>
    <trip id="387" depart="79.08" from="658488333" to="1032502934#0"/>
    <trip id="388" depart="79.29" from="496989303#0" to="46154330#3"/>
    <trip id="389" depart="79.49" from="641914938#0" to="1167942377#0"/>
    <trip id="390" depart="79.70" from="190550014#0" to="41520108#0"/>
    <trip id="391" depart="79.90" from="157405685" to="496985713#0"/>
    <trip id="392" depart="80.10" from="413217632#0" to="767398934#0"/>
    <trip id="393" depart="80.31" from="46610734#0" to="453367786#3"/>
    <trip id="394" depart="80.51" from="835694480#0" to="1090370031"/>
    <trip id="395" depart="80.72" from="127693383#0" to="194926839"/>
    <trip id="396" depart="80.92" from="5672925#0" to="812936282#0"/>
    <trip id="397" depart="81.13" from="226193933#8" to="872052105#0"/>
    <trip id="398" depart="81.33" from="420598232#0" to="-194923765"/>
    <trip id="399" depart="81.53" from="46226335" to="968737541#9"/>
    <trip id="400" depart="81.74" from="-1136699156#1" to="-420904658#2"/>
    <trip id="401" depart="81.94" from="496978219#0" to="-194923763#1"/>
    <trip id="402" depart="82.15" from="1057527157#0" to="458166896#0"/>
    <trip id="403" depart="82.35" from="438385431#9" to="446864091#10"/>
    <trip id="404" depart="82.56" from="455501328#0" to="124814435#0"/>
    <trip id="405" depart="82.76" from="479642043#0" to="1096427015#0"/>
    <trip id="406" depart="82.96" from="46201655#2" to="46348790"/>
    <trip id="407" depart="83.17" from="388167519#0" to="46165819#0"/>
    <trip id="408" depart="83.37" from="421825692#0" to="-438901171#1"/>
    <trip id="409" depart="83.58" from="-46201651" to="-978675659"/>
    <trip id="410" depart="83.78" from="1156475211#0" to="814841667#0"/>
    <trip id="411" depart="83.99" from="-1088320651#1" to="5669639#4"/>
    <trip id="412" depart="84.19" from="420598270#0" to="315174425#2"/>
    <trip id="413" depart="84.40" from="5670193#4" to="157012386#10"/>
    <trip id="414" depart="84.60" from="195743225#0" to="-767372817#2"/>