<?xml version="1.0" encoding="UTF-8"?>

<!-- generated on 2025-08-04 17:25:12.670355 by randomTrips.py UNKNOWN
<configuration>
    <net-file value="manhattan_micro/osm.net.xml"/>
    <output-trip-file value="manhattan_micro/random_trips_3600_id20.rou.xml"/>
    <random value="True"/>
    <validate value="True"/>
    <insertion-density value="20.0"/>
</configuration>
-->

<routes xmlns:xsi="http://www.w3.org/2001/XMLSchema-instance" xsi:noNamespaceSchemaLocation="http://sumo.dlr.de/xsd/routes_file.xsd">
    <trip id="0" depart="0.00" from="1135361330#0" to="962612852"/>
    <trip id="1" depart="0.31" from="5673157#1" to="127693383#0"/>
    <trip id="2" depart="0.61" from="1117942067#0" to="655499757#0"/>
    <trip id="3" depart="0.92" from="540356239#0" to="520532096#0"/>
    <trip id="4" depart="1.23" from="5672986#0" to="5672487#0"/>
    <trip id="5" depart="1.53" from="5669962#3" to="22914179#0"/>
    <trip id="6" depart="1.84" from="1057257709" to="479642037#0"/>
    <trip id="7" depart="2.15" from="-195743554#3" to="1021949732#0"/>
    <trip id="8" depart="2.45" from="420810622#0" to="438385431#6"/>
    <trip id="9" depart="2.76" from="1184480986#0" to="1278214313#0"/>
    <trip id="10" depart="3.07" from="273019805" to="5672986#2"/>
    <trip id="11" depart="3.37" from="5673523#0" to="682359868"/>
    <trip id="12" depart="3.68" from="729972920#0" to="488376503#0"/>
    <trip id="13" depart="3.98" from="5670814#9" to="505317783#0"/>
    <trip id="14" depart="4.29" from="643000849#0" to="1014414688#0"/>
    <trip id="15" depart="4.60" from="5670171#3" to="5672337#0"/>
    <trip id="16" depart="4.90" from="22927903" to="992141077#3"/>
    <trip id="17" depart="5.21" from="420872179#0" to="959157334"/>
    <trip id="18" depart="5.52" from="420598236#0" to="420901690#0"/>
    <trip id="19" depart="5.82" from="447001271#1" to="40709928#0"/>
    <trip id="20" depart="6.13" from="46348768#0" to="589494595#0"/>
    <trip id="21" depart="6.44" from="968737541#6" to="112116234#0"/>
    <trip id="22" depart="6.74" from="5670275" to="36806896#0"/>
    <trip id="23" depart="7.05" from="1050255675#0" to="1021042405"/>
    <trip id="24" depart="7.36" from="194923799" to="958203289"/>
    <trip id="25" depart="7.66" from="194923800#7" to="25198488#0"/>
    <trip id="26" depart="7.97" from="525698215#0" to="5673533"/>
    <trip id="27" depart="8.28" from="481962592#0" to="-560788343#2"/>
    <trip id="28" depart="8.58" from="1052627487#0" to="5671404#2"/>
    <trip id="29" depart="8.89" from="-630828592#4" to="1135361170#0"/>
    <trip id="30" depart="9.20" from="-420872209" to="-273019810#1"/>
    <trip id="31" depart="9.50" from="5672142#6" to="-978675658#2"/>
    <trip id="32" depart="9.81" from="525729009#0" to="1027227120#0"/>
    <trip id="33" depart="10.12" from="438363729#2" to="467222812#9"/>
    <trip id="34" depart="10.42" from="420809425#0" to="1238347039#0"/>
    <trip id="35" depart="10.73" from="1189567313#8" to="68668537#0"/>
    <trip id="36" depart="11.03" from="5670170#0" to="1036714798#0"/>
    <trip id="37" depart="11.34" from="157012398#0" to="1238990622#0"/>
    <trip id="38" depart="11.65" from="25167210#4" to="5671693#0"/>
    <trip id="39" depart="11.95" from="1266830886#0" to="1067728687#0"/>
    <trip id="40" depart="12.26" from="-1088325196#1" to="981500817#0"/>
    <trip id="41" depart="12.57" from="-767372817#2" to="5672184#0"/>
    <trip id="42" depart="12.87" from="1027130507#0" to="871725893#0"/>
    <trip id="43" depart="13.18" from="46139048#4" to="1229513702#0"/>
    <trip id="44" depart="13.49" from="5672027#0" to="162041587#0"/>
    <trip id="45" depart="13.79" from="954659191#0" to="420519634"/>
    <trip id="46" depart="14.10" from="496982371" to="458166896#0"/>
    <trip id="47" depart="14.41" from="1034703028#0" to="207542284"/>
    <trip id="48" depart="14.71" from="1202638283#3" to="68674966"/>
    <trip id="49" depart="15.02" from="5670106#6" to="-420509471#6"/>
    <trip id="50" depart="15.33" from="-1080319439#2" to="413217631#0"/>
    <trip id="51" depart="15.63" from="542257430#0" to="589494594#0"/>
    <trip id="52" depart="15.94" from="955301425#0" to="352705238#0"/>
    <trip id="53" depart="16.25" from="40879221#0" to="433394647#0"/>
    <trip id="54" depart="16.55" from="464683329#0" to="451904646#0"/>
    <trip id="55" depart="16.86" from="-1238431053#2" to="46610727#2"/>
    <trip id="56" depart="17.17" from="978675658#3" to="1014414688#3"/>
    <trip id="57" depart="17.47" from="5670709#0" to="-36806903#1"/>
    <trip id="58" depart="17.78" from="1184480985#0" to="1167942378"/>
    <trip id="59" depart="18.08" from="194926854#0" to="1274636982#6"/>
    <trip id="60" depart="18.39" from="968737542#0" to="542257009#3"/>
    <trip id="61" depart="18.70" from="1021124545#0" to="989267825#0"/>
    <trip id="62" depart="19.00" from="827979008#0" to="46160225#3"/>
    <trip id="63" depart="19.31" from="1096427015#3" to="5673073#1"/>
    <trip id="64" depart="19.62" from="-1203376570#2" to="5670172#6"/>
    <trip id="65" depart="19.92" from="955214790#0" to="-981500819#1"/>
    <trip id="66" depart="20.23" from="952703048#0" to="46116180"/>
    <trip id="67" depart="20.54" from="542096278#0" to="5669227#0"/>
    <trip id="68" depart="20.84" from="157012398#0" to="5671339#6"/>
    <trip id="69" depart="21.15" from="222299273#0" to="190550014#0"/>
    <trip id="70" depart="21.46" from="22909136" to="524817694#0"/>
    <trip id="71" depart="21.76" from="-22928102#3" to="5670174#0"/>
    <trip id="72" depart="22.07" from="884400279#0" to="849942510#3"/>
    <trip id="73" depart="22.38" from="396444293#0" to="-46160244#2"/>
    <trip id="74" depart="22.68" from="803047266#0" to="420519635#0"/>
    <trip id="75" depart="22.99" from="-335935798#1" to="194923761#0"/>
    <trip id="76" depart="23.30" from="-420872201#1" to="812936282#2"/>
    <trip id="77" depart="23.60" from="675967321#3" to="847931435#0"/>
    <trip id="78" depart="23.91" from="706833044#3" to="24264070#0"/>
    <trip id="79" depart="24.22" from="1088327054" to="-666752576#2"/>
    <trip id="80" depart="24.52" from="5673077#2" to="-912475761#2"/>
    <trip id="81" depart="24.83" from="-945473887#1" to="420352243#0"/>
    <trip id="82" depart="25.13" from="496978218#0" to="-46431825#3"/>
    <trip id="83" depart="25.44" from="194926850#0" to="5670172#3"/>
    <trip id="84" depart="25.75" from="847952488#1" to="1167942377#0"/>
    <trip id="85" depart="26.05" from="957085297" to="1088325195#0"/>
    <trip id="86" depart="26.36" from="481403101#0" to="226040991#0"/>
    <trip id="87" depart="26.67" from="420884524" to="-439842799#2"/>
    <trip id="88" depart="26.97" from="46116442" to="822128685#0"/>
    <trip id="89" depart="27.28" from="54369822#0" to="125479721#0"/>
    <trip id="90" depart="27.59" from="1025734022#0" to="-477151469#5"/>
    <trip id="91" depart="27.89" from="32934351#0" to="1298182741"/>
    <trip id="92" depart="28.20" from="-381477008#1" to="586350564#0"/>
    <trip id="93" depart="28.51" from="554083353#3" to="903593425#0"/>
    <trip id="94" depart="28.81" from="1027227123#0" to="381480256#2"/>
    <trip id="95" depart="29.12" from="46139040#0" to="-1231809467"/>
    <trip id="96" depart="29.43" from="420872197#0" to="5673530#0"/>
    <trip id="97" depart="29.73" from="457948936#0" to="1051841854#0"/>
    <trip id="98" depart="30.04" from="1159053287#0" to="308322431#0"/>
    <trip id="99" depart="30.35" from="729972919#0" to="5672510#0"/>
    <trip id="100" depart="30.65" from="420351718#0" to="1224593084"/>
    <trip id="101" depart="30.96" from="767372817#0" to="1237326681#0"/>
    <trip id="102" depart="31.27" from="32922457" to="479642042#0"/>
    <trip id="103" depart="31.57" from="46608336#0" to="-46154330#2"/>
    <trip id="104" depart="31.88" from="587038101#0" to="-945473887#1"/>
    <trip id="105" depart="32.18" from="1021068251#0" to="195834894#0"/>
    <trip id="106" depart="32.49" from="962612851#0" to="46160225#0"/>
    <trip id="107" depart="32.80" from="388316170#0" to="5671663#0"/>
    <trip id="108" depart="33.10" from="978675658#3" to="505772014#0"/>
    <trip id="109" depart="33.41" from="992405802#3" to="1032502935#0"/>
    <trip id="110" depart="33.72" from="451954043" to="384649120#2"/>
    <trip id="111" depart="34.02" from="438901171#0" to="1188730038"/>
    <trip id="112" depart="34.33" from="706833044#0" to="46610725#6"/>
    <trip id="113" depart="34.64" from="420904658#0" to="485556246"/>
    <trip id="114" depart="34.94" from="352705238#5" to="5671059#0"/>
    <trip id="115" depart="35.25" from="5672607#0" to="420598230#0"/>
    <trip id="116" depart="35.56" from="348477349#0" to="46431825#4"/>
    <trip id="117" depart="35.86" from="845781114#4" to="847931436#3"/>
    <trip id="118" depart="36.17" from="812936280#6" to="1158491835"/>
    <trip id="119" depart="36.48" from="46610734#0" to="46348790"/>
    <trip id="120" depart="36.78" from="5672510#0" to="1057527157#0"/>
    <trip id="121" depart="37.09" from="-477151469#5" to="1036714796#0"/>
    <trip id="122" depart="37.40" from="25163419#0" to="5672510#3"/>
    <trip id="123" depart="37.70" from="25199883#3" to="46201650#0"/>
    <trip id="124" depart="38.01" from="421825692#3" to="-845781907#2"/>
    <trip id="125" depart="38.32" from="958188024#0" to="1053369944#0"/>
    <trip id="126" depart="38.62" from="-525033953#1" to="195743227#0"/>
    <trip id="127" depart="38.93" from="543902512#0" to="561084838#9"/>
    <trip id="128" depart="39.23" from="496980201#2" to="-5671028#2"/>
    <trip id="129" depart="39.54" from="479642043#6" to="771759769#0"/>
    <trip id="130" depart="39.85" from="-46332308#1" to="-414751458#2"/>
    <trip id="131" depart="40.15" from="194923802#0" to="5670551#0"/>
    <trip id="132" depart="40.46" from="1156474000#0" to="194923808#0"/>
    <trip id="133" depart="40.77" from="421825693#0" to="420901919#0"/>
    <trip id="134" depart="41.07" from="46348790" to="46351263#0"/>
    <trip id="135" depart="41.38" from="433124996#0" to="1007811374#0"/>
    <trip id="136" depart="41.69" from="36271338#0" to="616745173#0"/>
    <trip id="137" depart="41.99" from="348488662#0" to="-5672922#2"/>
    <trip id="138" depart="42.30" from="1051550982#0" to="46116180"/>
    <trip id="139" depart="42.61" from="852992105#2" to="397839400#7"/>
    <trip id="140" depart="42.91" from="5669742#0" to="1128388463#3"/>
    <trip id="141" depart="43.22" from="5669857#0" to="420888140#0"/>
    <trip id="142" depart="43.53" from="1080319438#0" to="587061869#0"/>
    <trip id="143" depart="43.83" from="1050255675#0" to="954826394#1"/>
    <trip id="144" depart="44.14" from="1043336433#0" to="5672478"/>
    <trip id="145" depart="44.45" from="-420904621#1" to="968394451#0"/>
    <trip id="146" depart="44.75" from="5671307#2" to="542096279#0"/>
    <trip id="147" depart="45.06" from="992132288#0" to="351638330#0"/>
    <trip id="148" depart="45.37" from="194923798#0" to="-451954039#4"/>
    <trip id="149" depart="45.67" from="-806341217#2" to="-739591695#2"/>
    <trip id="150" depart="45.98" from="-556075523#1" to="525033953#0"/>
    <trip id="151" depart="46.28" from="912475761#0" to="5669866#3"/>
    <trip id="152" depart="46.59" from="46171878#4" to="40709928#3"/>
    <trip id="153" depart="46.90" from="488272734#0" to="-195743554#9"/>
    <trip id="154" depart="47.20" from="-747908052#2" to="903589927#0"/>
    <trip id="155" depart="47.51" from="-5670709#1" to="-46481744#1"/>
    <trip id="156" depart="47.82" from="420598366#0" to="465098271#0"/>
    <trip id="157" depart="48.12" from="32922457" to="68674966"/>
    <trip id="158" depart="48.43" from="655499757#0" to="5671543"/>
    <trip id="159" depart="48.74" from="1059459147" to="36801355#1"/>
    <trip id="160" depart="49.04" from="-420356168#4" to="1050255676#0"/>
    <trip id="161" depart="49.35" from="-477151469#9" to="454031476#0"/>
    <trip id="162" depart="49.66" from="-1007837780#1" to="5670247#0"/>
    <trip id="163" depart="49.96" from="-481047237#2" to="-1238156663#1"/>
    <trip id="164" depart="50.27" from="986615540#0" to="1127573855#0"/>
    <trip id="165" depart="50.58" from="39956203#3" to="989793295#0"/>
    <trip id="166" depart="50.88" from="1117942067#0" to="681064391"/>
    <trip id="167" depart="51.19" from="362811088#0" to="-571651963#1"/>
    <trip id="168" depart="51.50" from="1021949722#0" to="451905565#0"/>
    <trip id="169" depart="51.80" from="1038772917#0" to="420351725#0"/>
    <trip id="170" depart="52.11" from="5672076" to="5670247#0"/>
    <trip id="171" depart="52.42" from="5669806#3" to="978431658#0"/>
    <trip id="172" depart="52.72" from="1088320649#0" to="-988992295#2"/>
    <trip id="173" depart="53.03" from="5670941#2" to="-1233090489"/>
    <trip id="174" depart="53.33" from="1237364397#0" to="226041002"/>
    <trip id="175" depart="53.64" from="95181774#0" to="25199402#6"/>
    <trip id="176" depart="53.95" from="843553760#3" to="-1068067608"/>
    <trip id="177" depart="54.25" from="68674968#3" to="1038772918#0"/>
    <trip id="178" depart="54.56" from="388281630#0" to="812936280#6"/>
    <trip id="179" depart="54.87" from="41520108#0" to="222299238#0"/>
    <trip id="180" depart="55.17" from="384649120#2" to="460069727#0"/>
    <trip id="181" depart="55.48" from="-525656847#2" to="5671608#3"/>
    <trip id="182" depart="55.79" from="46116170#0" to="1042964169#0"/>
    <trip id="183" depart="56.09" from="1022184083#0" to="888759076#0"/>
    <trip id="184" depart="56.40" from="1148931681#0" to="803047266#0"/>
    <trip id="185" depart="56.71" from="663634122#0" to="226041019#0"/>
    <trip id="186" depart="57.01" from="496980201#5" to="5671429#10"/>
    <trip id="187" depart="57.32" from="-1238431052#8" to="-451954042#1"/>
    <trip id="188" depart="57.63" from="5672535#6" to="1022796561"/>
    <trip id="189" depart="57.93" from="-5673605#2" to="991205021#0"/>
    <trip id="190" depart="58.24" from="992405802#0" to="1032043567#0"/>
    <trip id="191" depart="58.55" from="22904150#0" to="1003466063"/>
    <trip id="192" depart="58.85" from="978675659" to="989390263"/>
    <trip id="193" depart="59.16" from="5670254#0" to="439933929#0"/>
    <trip id="194" depart="59.47" from="420598335#0" to="1051856442"/>
    <trip id="195" depart="59.77" from="25162679#0" to="1088320650#0"/>
    <trip id="196" depart="60.08" from="-978675658#7" to="-1156469243#2"/>
    <trip id="197" depart="60.38" from="483707770#0" to="-413212450#4"/>
    <trip id="198" depart="60.69" from="5671111#0" to="1051734607#0"/>
    <trip id="199" depart="61.00" from="1067728688#0" to="68674968#0"/>
    <trip id="200" depart="61.30" from="1185872416#0" to="226040994#0"/>
    <trip id="201" depart="61.61" from="-1004369132#3" to="-195743554#12"/>
    <trip id="202" depart="61.92" from="589494596#0" to="22927462#3"/>
    <trip id="203" depart="62.22" from="420598335#0" to="381565180#0"/>
    <trip id="204" depart="62.53" from="539024460#4" to="5672715#0"/>
    <trip id="205" depart="62.84" from="222299248#3" to="-420904658#2"/>
    <trip id="206" depart="63.14" from="95181768#2" to="5671341#3"/>
    <trip id="207" depart="63.45" from="1021051876#0" to="989265268#0"/>
    <trip id="208" depart="63.76" from="188559800#3" to="968388395#0"/>
    <trip id="209" depart="64.06" from="68325062#0" to="1189989592#0"/>
    <trip id="210" depart="64.37" from="966146166" to="5669639#0"/>
    <trip id="211" depart="64.68" from="1057563582" to="22898269#0"/>
    <trip id="212" depart="64.98" from="32934362#0" to="-273019810#1"/>
    <trip id="213" depart="65.29" from="5669806#0" to="-38605246#2"/>
    <trip id="214" depart="65.60" from="351638330#1" to="963575587#0"/>
    <trip id="215" depart="65.90" from="226041022#0" to="1031400325#0"/>
    <trip id="216" depart="66.21" from="194923807#0" to="46350695#0"/>
    <trip id="217" depart="66.51" from="127691871#0" to="46332295#7"/>
    <trip id="218" depart="66.82" from="36801165#0" to="-5670087#2"/>
    <trip id="219" depart="67.13" from="-536917120#1" to="993797891#0"/>
    <trip id="220" depart="67.43" from="1124078897#0" to="5673102#0"/>
    <trip id="221" depart="67.74" from="5671615#0" to="492148704#0"/>
    <trip id="222" depart="68.05" from="420598230#4" to="1220650925#0"/>
    <trip id="223" depart="68.35" from="46201652" to="368938760#0"/>
    <trip id="224" depart="68.66" from="112116236#0" to="412174929#0"/>
    <trip id="225" depart="68.97" from="464522037#0" to="167922077#0"/>
    <trip id="226" depart="69.27" from="194923764#0" to="5672040#0"/>
    <trip id="227" depart="69.58" from="451808494#0" to="420888150"/>
    <trip id="228" depart="69.89" from="-1188730152#1" to="-1252123717#1"/>
    <trip id="229" depart="70.19" from="799407328#0" to="1159053287#0"/>
    <trip id="230" depart="70.50" from="46482536" to="1031408125#0"/>
    <trip id="231" depart="70.81" from="46116390#0" to="451954060#0"/>
    <trip id="232" depart="71.11" from="-420872201#1" to="5669962#0"/>
    <trip id="233" depart="71.42" from="221687792#0" to="46201644"/>
    <trip id="234" depart="71.73" from="5670498#0" to="439933935#0"/>
    <trip id="235" depart="72.03" from="5671393#3" to="420809420#0"/>
    <trip id="236" depart="72.34" from="799833493#1" to="1051750428#0"/>
    <trip id="237" depart="72.65" from="194926856#0" to="222299242#0"/>
    <trip id="238" depart="72.95" from="22902610#0" to="528759347"/>
    <trip id="239" depart="73.26" from="222299254#0" to="5673424#0"/>
    <trip id="240" depart="73.56" from="889114533#6" to="1051841858#0"/>
    <trip id="241" depart="73.87" from="5670814#19" to="439933935#0"/>
    <trip id="242" depart="74.18" from="515879040#0" to="112116234#4"/>
    <trip id="243" depart="74.48" from="439842831#9" to="835694479#0"/>
    <trip id="244" depart="74.79" from="958188024#1" to="847939166#0"/>
    <trip id="245" depart="75.10" from="496980200#0" to="439842835#3"/>
    <trip id="246" depart="75.40" from="607091411#9" to="446193620#0"/>
    <trip id="247" depart="75.71" from="-46469725" to="955261513#3"/>
    <trip id="248" depart="76.02" from="1050195960#0" to="1238431052#0"/>
    <trip id="249" depart="76.32" from="480112478#6" to="5670651#3"/>
    <trip id="250" depart="76.63" from="421827960#0" to="5670232#0"/>
    <trip id="251" depart="76.94" from="421832644#1" to="-978675659"/>
    <trip id="252" depart="77.24" from="46334600" to="5672450#7"/>
    <trip id="253" depart="77.55" from="25167210#6" to="351540625#2"/>
    <trip id="254" depart="77.86" from="467222812#5" to="196117042#6"/>
    <trip id="255" depart="78.16" from="1027228244#0" to="1202638283#3"/>
    <trip id="256" depart="78.47" from="597821266#7" to="-628093103#2"/>
    <trip id="257" depart="78.78" from="1167942378" to="1051841854#0"/>
    <trip id="258" depart="79.08" from="165777951#0" to="1262278384#0"/>
    <trip id="259" depart="79.39" from="989390266" to="846127259#4"/>
    <trip id="260" depart="79.70" from="5669804#0" to="388240124#13"/>
    <trip id="261" depart="80.00" from="662161062#0" to="5672988#0"/>
    <trip id="262" depart="80.31" from="1127576696#0" to="1202586282#9"/>
    <trip id="263" depart="80.61" from="421853810" to="5671866"/>
    <trip id="264" depart="80.92" from="-1159051925#1" to="134485639"/>
    <trip id="265" depart="81.23" from="5672992#0" to="803047266#0"/>
    <trip id="266" depart="81.53" from="5670814#16" to="352705238#2"/>
    <trip id="267" depart="81.84" from="32936733" to="-195743199#12"/>
    <trip id="268" depart="82.15" from="968388394#0" to="46610725#3"/>
    <trip id="269" depart="82.45" from="388240124#13" to="46431823#3"/>
    <trip id="270" depart="82.76" from="1015679930#0" to="5670820#0"/>
    <trip id="271" depart="83.07" from="1135576504#0" to="-655255187#2"/>
    <trip id="272" depart="83.37" from="439933934#0" to="46609036#0"/>
    <trip id="273" depart="83.68" from="196117073" to="125479715#6"/>
    <trip id="274" depart="83.99" from="837515831#0" to="46139048#0"/>
    <trip id="275" depart="84.29" from="1062029895#0" to="497746842#0"/>
    <trip id="276" depart="84.60" from="5670174#0" to="39956203#3"/>
    <trip id="277" depart="84.91" from="846137635#0" to="195743209#0"/>
    <trip id="278" depart="85.21" from="-524816751#2" to="497769953#0"/>
    <trip id="279" depart="85.52" from="992132288#0" to="129834316#3"/>
    <trip id="280" depart="85.83" from="5672187#0" to="420598256#0"/>
    <trip id="281" depart="86.13" from="1167942379" to="-806472902#2"/>
    <trip id="282" depart="86.44" from="68668546#0" to="194923795#6"/>
    <trip id="283" depart="86.75" from="496989301#0" to="447001272#0"/>
    <trip id="284" depart="87.05" from="-276670360#3" to="-1010159653#1"/>
    <trip id="285" depart="87.36" from="22927287#3" to="46522005#0"/>
    <trip id="286" depart="87.66" from="460069727#0" to="480682396#0"/>
    <trip id="287" depart="87.97" from="1238431028#0" to="439842757#0"/>
    <trip id="288" depart="88.28" from="5671202#0" to="-5671307#8"/>
    <trip id="289" depart="88.58" from="525729010#0" to="480682395#0"/>
    <trip id="290" depart="88.89" from="852992104" to="591772211#0"/>
    <trip id="291" depart="89.20" from="1135342276#0" to="5670092#34"/>
    <trip id="292" depart="89.50" from="846127259#0" to="1187622116"/>
    <trip id="293" depart="89.81" from="34769546#0" to="46139046#0"/>
    <trip id="294" depart="90.12" from="630828595#0" to="1021949734#0"/>
    <trip id="295" depart="90.42" from="166038132#0" to="1036546555"/>
    <trip id="296" depart="90.73" from="479642043#6" to="587038047"/>
    <trip id="297" depart="91.04" from="420809419#8" to="412180553#0"/>
    <trip id="298" depart="91.34" from="428569470#0" to="1088320654#0"/>
    <trip id="299" depart="91.65" from="543908289#0" to="963613972#0"/>
    <trip id="300" depart="91.96" from="1032459844#0" to="1050255675#2"/>
    <trip id="301" depart="92.26" from="-5670254#2" to="-420872201#1"/>
    <trip id="302" depart="92.57" from="25199870#7" to="505600307#0"/>
    <trip id="303" depart="92.88" from="-420904658#2" to="5672896#12"/>
    <trip id="304" depart="93.18" from="5670836#0" to="40879216#0"/>
    <trip id="305" depart="93.49" from="195743225#0" to="700951339#0"/>
    <trip id="306" depart="93.80" from="-1136699159#2" to="5672178#0"/>
    <trip id="307" depart="94.10" from="46469720#0" to="1040877494"/>
    <trip id="308" depart="94.41" from="1036714800#0" to="589494595#0"/>
    <trip id="309" depart="94.71" from="112116234#0" to="420352250#0"/>
    <trip id="310" depart="95.02" from="5670703#2" to="812936282#2"/>
    <trip id="311" depart="95.33" from="5672138#0" to="194923792#0"/>
    <trip id="312" depart="95.63" from="396444293#0" to="22909249#0"/>
    <trip id="313" depart="95.94" from="963551553#5" to="-1125256558#2"/>
    <trip id="314" depart="96.25" from="653406301#0" to="194923812#0"/>
    <trip id="315" depart="96.55" from="32938997#3" to="964220271"/>
    <trip id="316" depart="96.86" from="681061720#0" to="992141077#3"/>
    <trip id="317" depart="97.17" from="706833046#0" to="-1136699160#2"/>
    <trip id="318" depart="97.47" from="1298057019#0" to="-1203376570#2"/>
    <trip id="319" depart="97.78" from="1187622115" to="903116994"/>
    <trip id="320" depart="98.09" from="464683316#3" to="420598335#0"/>
    <trip id="321" depart="98.39" from="884400279#0" to="388240124#20"/>
    <trip id="322" depart="98.70" from="5672803#0" to="954178925#0"/>
    <trip id="323" depart="99.01" from="420809442" to="-420356169#3"/>
    <trip id="324" depart="99.31" from="-496978219#2" to="5670418#3"/>
    <trip id="325" depart="99.62" from="806472902#0" to="500717399#0"/>
    <trip id="326" depart="99.93" from="-696491643#1" to="-5672646#5"/>
    <trip id="327" depart="100.23" from="-813956617#11" to="496977101#4"/>
    <trip id="328" depart="100.54" from="420810622#0" to="-420356168#4"/>
    <trip id="329" depart="100.85" from="5672142#0" to="46469732#0"/>
    <trip id="330" depart="101.15" from="1197069043#0" to="466956278#2"/>
    <trip id="331" depart="101.46" from="516664207#0" to="446864091#1"/>
    <trip id="332" depart="101.76" from="-489019753" to="-195743199#12"/>
    <trip id="333" depart="102.07" from="847994494#0" to="413217631#0"/>
    <trip id="334" depart="102.38" from="1027181006#0" to="46201666#0"/>
    <trip id="335" depart="102.68" from="584971531#3" to="1014414688#0"/>
    <trip id="336" depart="102.99" from="-276670360#3" to="958188024#1"/>
    <trip id="337" depart="103.30" from="388284037#0" to="852992101#0"/>
    <trip id="338" depart="103.60" from="1052686445#0" to="421825692#13"/>
    <trip id="339" depart="103.91" from="806472903#0" to="352705238#5"/>
    <trip id="340" depart="104.22" from="962612852" to="505317789#0"/>
    <trip id="341" depart="104.52" from="5670736#4" to="1212776159#0"/>
    <trip id="342" depart="104.83" from="-655255187#4" to="847932330#0"/>
    <trip id="343" depart="105.14" from="847932924#0" to="852992099#0"/>
    <trip id="344" depart="105.44" from="1080873865" to="-1136699158#1"/>
    <trip id="345" depart="105.75" from="5669962#6" to="1036712190"/>
    <trip id="346" depart="106.06" from="1051858090#0" to="5670084#9"/>
    <trip id="347" depart="106.36" from="5671799#0" to="35027229#0"/>
    <trip id="348" depart="106.67" from="5670633#9" to="-1136699160#2"/>
    <trip id="349" depart="106.98" from="-524361790" to="194926840#0"/>
    <trip id="350" depart="107.28" from="438900013#0" to="420598337#0"/>
    <trip id="351" depart="107.59" from="564392620" to="432550169"/>
    <trip id="352" depart="107.90" from="396444294#22" to="5673073#1"/>
    <trip id="353" depart="108.20" from="420499932#0" to="195743345#0"/>
    <trip id="354" depart="108.51" from="194923764#5" to="492148701#0"/>
    <trip id="355" depart="108.81" from="5670092#7" to="438900013#0"/>
    <trip id="356" depart="109.12" from="814840327" to="1188730083#3"/>
    <trip id="357" depart="109.43" from="5669013#0" to="438385431#6"/>
    <trip id="358" depart="109.73" from="5669976#0" to="1151033517#0"/>
    <trip id="359" depart="110.04" from="5669077" to="1021949734#0"/>
    <trip id="360" depart="110.35" from="1088321124#0" to="166038145#0"/>
    <trip id="361" depart="110.65" from="226193928#0" to="525656847#0"/>
    <trip id="362" depart="110.96" from="511699182#3" to="1228693943"/>
    <trip id="363" depart="111.27" from="870681743" to="22898269#0"/>
    <trip id="364" depart="111.57" from="-25166922#2" to="-988992295#2"/>
    <trip id="365" depart="111.88" from="46154281#0" to="157012386#0"/>
    <trip id="366" depart="112.19" from="525656852#0" to="587038101#0"/>
    <trip id="367" depart="112.49" from="569451559#0" to="457937084#0"/>
    <trip id="368" depart="112.80" from="767372817#0" to="496990647#6"/>
    <trip id="369" depart="113.11" from="847931435#3" to="5670711#0"/>
    <trip id="370" depart="113.41" from="5672896#6" to="5669875#0"/>
    <trip id="371" depart="113.72" from="480112479#0" to="1266830887#0"/>
    <trip id="372" depart="114.03" from="24263967#0" to="447018423#4"/>
    <trip id="373" depart="114.33" from="347306313#0" to="870681744"/>
    <trip id="374" depart="114.64" from="194923776#0" to="46481095#2"/>
    <trip id="375" depart="114.95" from="989793293#0" to="95181774#0"/>
    <trip id="376" depart="115.25" from="706833044#0" to="420901919#0"/>
    <trip id="377" depart="115.56" from="68674968#0" to="5673452"/>
    <trip id="378" depart="115.86" from="955301424#0" to="46165819#0"/>
    <trip id="379" depart="116.17" from="195743227#0" to="46610721#0"/>
    <trip id="380" depart="116.48" from="451808492#4" to="32972072#0"/>
    <trip id="381" depart="116.78" from="-194923760#1" to="561084838#3"/>
    <trip id="382" depart="117.09" from="381477008#0" to="-630828594#2"/>
    <trip id="383" depart="117.40" from="-584971531#5" to="420352248#0"/>
    <trip id="384" depart="117.70" from="-195743554#9" to="1027181006#0"/>
    <trip id="385" depart="118.01" from="412180553#15" to="483704512#4"/>
    <trip id="386" depart="118.32" from="812936280#9" to="420901920#0"/>
    <trip id="387" depart="118.62" from="5672321#0" to="5670657"/>
    <trip id="388" depart="118.93" from="5671028#0" to="421825692#16"/>
    <trip id="389" depart="119.24" from="5671608#6" to="-1067449185#1"/>
    <trip id="390" depart="119.54" from="188559800#15" to="420901683#0"/>
    <trip id="391" depart="119.85" from="630828595#0" to="68674968#6"/>
    <trip id="392" depart="120.16" from="127690685#0" to="46139048#0"/>
    <trip id="393" depart="120.46" from="464522037#3" to="5672710#1"/>
    <trip id="394" depart="120.77" from="68325075" to="46154281#0"/>
    <trip id="395" depart="121.08" from="-226193905#4" to="5671359#0"/>
    <trip id="396" depart="121.38" from="421825692#16" to="-584971531#8"/>
    <trip id="397" depart="121.69" from="-1080319437#2" to="964220271"/>
    <trip id="398" depart="122.00" from="420809411#0" to="222299248#3"/>
    <trip id="399" depart="122.30" from="129834314#0" to="-1080319437#2"/>
    <trip id="400" depart="122.61" from="188559800#6" to="976050704#2"/>
    <trip id="401" depart="122.91" from="421853810" to="1007837779#0"/>
    <trip id="402" depart="123.22" from="5670296#3" to="964236440"/>
    <trip id="403" depart="123.53" from="846122853#0" to="1014414688#6"/>
    <trip id="404" depart="123.83" from="988987066#0" to="5669892#10"/>
    <trip id="405" depart="124.14" from="-276670360#3" to="1197056479"/>
    <trip id="406" depart="124.45" from="1027130506#2" to="-665503121#4"/>
    <trip id="407" depart="124.75" from="852992111#3" to="1160297420#0"/>
    <trip id="408" depart="125.06" from="468414632#2" to="5672730#0"/>
    <trip id="409" depart="125.37" from="32922457" to="5669962#16"/>
    <trip id="410" depart="125.67" from="542257009#0" to="806341216#0"/>
    <trip id="411" depart="125.98" from="5671663#0" to="221157083#0"/>
    <trip id="412" depart="126.29" from="587038047" to="480682391#0"/>