<?xml version="1.0" encoding="UTF-8"?>

<!-- generated on 2025-08-01 23:40:03.221812 by randomTrips.py UNKNOWN
<configuration>
    <net-file value="./osm.net.xml"/>
    <output-trip-file value="random_trips_3600_id10.rou.xml"/>
    <random value="True"/>
    <validate value="True"/>
    <insertion-density value="10.0"/>
</configuration>
-->

<routes xmlns:xsi="http://www.w3.org/2001/XMLSchema-instance" xsi:noNamespaceSchemaLocation="http://sumo.dlr.de/xsd/routes_file.xsd">
    <trip id="0" depart="0.00" from="620796857#0" to="5669981#4"/>
    <trip id="1" depart="0.22" from="-1030243873#1" to="196117006#0"/>
    <trip id="2" depart="0.44" from="1003870611#0" to="5670655#3"/>
    <trip id="3" depart="0.66" from="1041012063#0" to="223902543#3"/>
    <trip id="4" depart="0.88" from="-438389786#1" to="198595549#0"/>
    <trip id="5" depart="1.10" from="5670168#3" to="5669881#10"/>
    <trip id="6" depart="1.32" from="195743183#3" to="-460657164#2"/>
    <trip id="7" depart="1.54" from="226041016#0" to="5670171#6"/>
    <trip id="8" depart="1.76" from="-226007049#6" to="5671298#0"/>
    <trip id="9" depart="1.98" from="846362785#0" to="1202638283#0"/>
    <trip id="10" depart="2.20" from="5670640#15" to="-46349386#2"/>
    <trip id="11" depart="2.42" from="1030243870#0" to="1015679931"/>
    <trip id="12" depart="2.64" from="810068700#0" to="1193079853#0"/>
    <trip id="13" depart="2.86" from="1028897920#2" to="525729009#0"/>
    <trip id="14" depart="3.07" from="1117867040#1" to="485165667#0"/>
    <trip id="15" depart="3.29" from="474304539#0" to="188290057#3"/>
    <trip id="16" depart="3.51" from="5670131#0" to="804521765#0"/>
    <trip id="17" depart="3.73" from="492148705#0" to="954520390#0"/>
    <trip id="18" depart="3.95" from="352705238#5" to="-664893485#44"/>
    <trip id="19" depart="4.17" from="1269117780" to="46171880#0"/>
    <trip id="20" depart="4.39" from="767683109" to="438370108"/>
    <trip id="21" depart="4.61" from="-511673770#1" to="278099585#3"/>
    <trip id="22" depart="4.83" from="1025731520#3" to="1080863337"/>
    <trip id="23" depart="5.05" from="658583344#13" to="496986969#0"/>
    <trip id="24" depart="5.27" from="-569369536#1" to="538831851#1"/>
    <trip id="25" depart="5.49" from="46334580#0" to="5671668#7"/>
    <trip id="26" depart="5.71" from="808055022#0" to="1146748992#0"/>
    <trip id="27" depart="5.93" from="1067449180#0" to="5670177#0"/>
    <trip id="28" depart="6.15" from="114654203#0" to="5670354#0"/>
    <trip id="29" depart="6.37" from="500796507#0" to="68668527#3"/>
    <trip id="30" depart="6.59" from="68674965#0" to="5669962#6"/>
    <trip id="31" depart="6.81" from="1268093037#1" to="812949647#10"/>
    <trip id="32" depart="7.03" from="-845781907#2" to="5671345#7"/>
    <trip id="33" depart="7.25" from="47796510#0" to="-46616995#7"/>
    <trip id="34" depart="7.47" from="-223486858#27" to="944990225#1"/>
    <trip id="35" depart="7.69" from="1296756211#0" to="-910520277#1"/>
    <trip id="36" depart="7.91" from="195743225#0" to="958188025"/>
    <trip id="37" depart="8.13" from="19725512#0" to="-420904659#1"/>
    <trip id="38" depart="8.35" from="-480682391#1" to="414743582#0"/>
    <trip id="39" depart="8.57" from="-993524201#1" to="5670508#5"/>
    <trip id="40" depart="8.79" from="-584971474#6" to="992164861"/>
    <trip id="41" depart="9.00" from="54689817#9" to="195743315#0"/>
    <trip id="42" depart="9.22" from="194933372#0" to="455687907#19"/>
    <trip id="43" depart="9.44" from="194923801#2" to="438384692#0"/>
    <trip id="44" depart="9.66" from="-196117019#6" to="204082722#8"/>
    <trip id="45" depart="9.88" from="46139046#1" to="5671457#0"/>
    <trip id="46" depart="10.10" from="658583344#9" to="620796857#0"/>
    <trip id="47" depart="10.32" from="1123877140#0" to="1146402189#0"/>
    <trip id="48" depart="10.54" from="-627805511#1" to="420895462#0"/>
    <trip id="49" depart="10.76" from="5670267#0" to="-474304540#1"/>
    <trip id="50" depart="10.98" from="-196117019#7" to="420904618#0"/>
    <trip id="51" depart="11.20" from="837696055#0" to="196117059#0"/>
    <trip id="52" depart="11.42" from="320584278#0" to="196117044#0"/>
    <trip id="53" depart="11.64" from="569345535#0" to="-664893485#20"/>
    <trip id="54" depart="11.86" from="420623116#0" to="196116978#0"/>
    <trip id="55" depart="12.08" from="196116983#8" to="327917960#3"/>
    <trip id="56" depart="12.30" from="478478416#2" to="-584971499#1"/>
    <trip id="57" depart="12.52" from="581139887#0" to="686125782#69"/>
    <trip id="58" depart="12.74" from="1202638283#3" to="223486855#2"/>
    <trip id="59" depart="12.96" from="1050255674#0" to="1081976610#2"/>
    <trip id="60" depart="13.18" from="243056525#3" to="-1271523188#1"/>
    <trip id="61" depart="13.40" from="-1234696599" to="1215388280#24"/>
    <trip id="62" depart="13.62" from="-46481744#4" to="464683322#0"/>
    <trip id="63" depart="13.84" from="39956203#3" to="884400289#0"/>
    <trip id="64" depart="14.06" from="22927946#0" to="978645353#4"/>
    <trip id="65" depart="14.28" from="420623118#0" to="5670254#3"/>
    <trip id="66" depart="14.50" from="68506901#0" to="736297372#0"/>
    <trip id="67" depart="14.72" from="-1091726255#2" to="308322447#0"/>
    <trip id="68" depart="14.93" from="46613632#4" to="989265270#0"/>
    <trip id="69" depart="15.15" from="812936280#3" to="528748997#8"/>
    <trip id="70" depart="15.37" from="990643311" to="-497250989#1"/>
    <trip id="71" depart="15.59" from="5672646#6" to="581139887#0"/>
    <trip id="72" depart="15.81" from="-164756916#2" to="902816136#0"/>
    <trip id="73" depart="16.03" from="5670642#3" to="-46616995#7"/>
    <trip id="74" depart="16.25" from="5672129#0" to="420590014#0"/>
    <trip id="75" depart="16.47" from="421853972#0" to="5673077#0"/>
    <trip id="76" depart="16.69" from="5671429#6" to="-837696050#1"/>
    <trip id="77" depart="16.91" from="5671314#4" to="1150636499#0"/>
    <trip id="78" depart="17.13" from="46538371#0" to="60858625#0"/>
    <trip id="79" depart="17.35" from="652023437#32" to="420809434"/>
    <trip id="80" depart="17.57" from="1080978586#1" to="5670578#1"/>
    <trip id="81" depart="17.79" from="-420874479#1" to="5670828"/>
    <trip id="82" depart="18.01" from="584971459#0" to="989270322#0"/>
    <trip id="83" depart="18.23" from="1030243869#0" to="46694771#0"/>
    <trip id="84" depart="18.45" from="5671172#0" to="1080863335"/>
    <trip id="85" depart="18.67" from="981274194#0" to="46201666#0"/>
    <trip id="86" depart="18.89" from="1215388281#0" to="455098897#0"/>
    <trip id="87" depart="19.11" from="-46111607#13" to="1036099866"/>
    <trip id="88" depart="19.33" from="542215989#0" to="-1088321123#1"/>
    <trip id="89" depart="19.55" from="1059596037#4" to="5670932#2"/>
    <trip id="90" depart="19.77" from="466956272#0" to="46469731#0"/>
    <trip id="91" depart="19.99" from="195743271#0" to="420871059#0"/>
    <trip id="92" depart="20.21" from="-5672660#2" to="157012386#7"/>
    <trip id="93" depart="20.43" from="569266476#0" to="-1030243869#1"/>
    <trip id="94" depart="20.65" from="5671685#0" to="164420607#2"/>
    <trip id="95" depart="20.87" from="420895425#0" to="-5671197#3"/>
    <trip id="96" depart="21.08" from="827979008#2" to="440122882#0"/>
    <trip id="97" depart="21.30" from="978439473#0" to="32922457"/>
    <trip id="98" depart="21.52" from="420351720#0" to="848011474#0"/>
    <trip id="99" depart="21.74" from="305323024#3" to="1080873865"/>
    <trip id="100" depart="21.96" from="46526965#0" to="848016982#0"/>
    <trip id="101" depart="22.18" from="-939401952#1" to="-223486858#29"/>
    <trip id="102" depart="22.40" from="5669533" to="1003466066"/>
    <trip id="103" depart="22.62" from="420904618#0" to="551646028#3"/>
    <trip id="104" depart="22.84" from="32963318" to="732794019#14"/>
    <trip id="105" depart="23.06" from="5673093#0" to="5669572"/>
    <trip id="106" depart="23.28" from="-5670600#1" to="5671780#1"/>
    <trip id="107" depart="23.50" from="1227588718#9" to="1024556686#0"/>
    <trip id="108" depart="23.72" from="976050704#2" to="5672764#0"/>
    <trip id="109" depart="23.94" from="-420590064#2" to="742215272#0"/>
    <trip id="110" depart="24.16" from="730300445#0" to="-837696067#1"/>
    <trip id="111" depart="24.38" from="166084358#0" to="461593096#3"/>
    <trip id="112" depart="24.60" from="1254245275#2" to="46694772#5"/>
    <trip id="113" depart="24.82" from="884400286#0" to="-46226329#1"/>
    <trip id="114" depart="25.04" from="5673523#0" to="452322757#0"/>
    <trip id="115" depart="25.26" from="-1080978586#3" to="-5670859#1"/>
    <trip id="116" depart="25.48" from="686125782#48" to="1278214313#0"/>
    <trip id="117" depart="25.70" from="458166895#0" to="806169765#3"/>
    <trip id="118" depart="25.92" from="226041022#0" to="903593425#0"/>
    <trip id="119" depart="26.14" from="460585328#18" to="458180183#0"/>
    <trip id="120" depart="26.36" from="-5670709#1" to="46694766#24"/>
    <trip id="121" depart="26.58" from="480112478#0" to="963567034#0"/>
    <trip id="122" depart="26.80" from="968427207#0" to="499172074#9"/>
    <trip id="123" depart="27.01" from="1208047691" to="36806903#0"/>
    <trip id="124" depart="27.23" from="-164875072" to="46594124#4"/>
    <trip id="125" depart="27.45" from="61914063#6" to="1080862159#0"/>
    <trip id="126" depart="27.67" from="1057153169#0" to="421852041"/>
    <trip id="127" depart="27.89" from="957807782#1-AddedOnRampEdge" to="1207774833#0"/>
    <trip id="128" depart="28.11" from="989267825#0" to="243056524#0"/>
    <trip id="129" depart="28.33" from="5673373#0" to="1169395570"/>
    <trip id="130" depart="28.55" from="5672149#0" to="-223486853#2"/>
    <trip id="131" depart="28.77" from="-1271523195#1" to="809826507#0"/>
    <trip id="132" depart="28.99" from="528792682#0" to="5673093#0"/>
    <trip id="133" depart="29.21" from="1039050546" to="-735173276#1"/>
    <trip id="134" depart="29.43" from="-420598407#2" to="847921887#0"/>
    <trip id="135" depart="29.65" from="352858052#6" to="420906656#0"/>
    <trip id="136" depart="29.87" from="455684726#0" to="-1156469243#2"/>
    <trip id="137" depart="30.09" from="630828570" to="895398385#0"/>
    <trip id="138" depart="30.31" from="-486583092" to="380098432#0"/>
    <trip id="139" depart="30.53" from="5673305#7" to="5670888#4"/>
    <trip id="140" depart="30.75" from="505766273#0" to="353135767#0"/>
    <trip id="141" depart="30.97" from="194923791#0" to="884400289#3"/>
    <trip id="142" depart="31.19" from="-438366913#3" to="34769061"/>
    <trip id="143" depart="31.41" from="497253397" to="652023437#7"/>
    <trip id="144" depart="31.63" from="5672068#3" to="902816136#0"/>
    <trip id="145" depart="31.85" from="458180196#0" to="194923759"/>
    <trip id="146" depart="32.07" from="46481738#6" to="835694480#0"/>
    <trip id="147" depart="32.29" from="-25564580#2" to="196117028#0"/>
    <trip id="148" depart="32.51" from="497002542#0" to="847950378#0"/>
    <trip id="149" depart="32.73" from="-273019810#4" to="46332299#2"/>
    <trip id="150" depart="32.94" from="195743267#0" to="1098734619#0"/>
    <trip id="151" depart="33.16" from="433442259" to="439842835#0"/>
    <trip id="152" depart="33.38" from="420358896#4" to="46111604#0"/>
    <trip id="153" depart="33.60" from="451954039#0" to="1188730002#6"/>
    <trip id="154" depart="33.82" from="497262701#0" to="46469727#0"/>
    <trip id="155" depart="34.04" from="-5671752#1" to="740085319#4"/>
    <trip id="156" depart="34.26" from="-439801896#3" to="626715185"/>
    <trip id="157" depart="34.48" from="420898202#0" to="420886250#0"/>
    <trip id="158" depart="34.70" from="-428569356#1" to="5670070#0"/>
    <trip id="159" depart="34.92" from="492148700#0" to="806195280#2"/>
    <trip id="160" depart="35.14" from="5672910#0" to="5670877#3"/>
    <trip id="161" depart="35.36" from="-5670738#4" to="278882487#10"/>
    <trip id="162" depart="35.58" from="-837696058#1" to="1149178606"/>
    <trip id="163" depart="35.80" from="46201650#1" to="36185649#0"/>
    <trip id="164" depart="36.02" from="5671603#0" to="-690415944#1"/>
    <trip id="165" depart="36.24" from="597821266#9" to="588887161#0"/>
    <trip id="166" depart="36.46" from="194933372#6" to="660225539#0"/>
    <trip id="167" depart="36.68" from="-734561425#5" to="5673102#2"/>
    <trip id="168" depart="36.90" from="-1080864177" to="-194923763#1"/>
    <trip id="169" depart="37.12" from="46211840#0" to="226041030#0"/>
    <trip id="170" depart="37.34" from="569345515#9" to="-5672986#1"/>
    <trip id="171" depart="37.56" from="-569361676#1" to="1046481429#0"/>
    <trip id="172" depart="37.78" from="1037772010#0" to="747825750#0"/>
    <trip id="173" depart="38.00" from="5673533" to="25166922#0"/>
    <trip id="174" depart="38.22" from="587038047" to="-195743134#4"/>
    <trip id="175" depart="38.44" from="420626397#0" to="1021949728#0"/>
    <trip id="176" depart="38.66" from="556311124#19" to="194923801#0"/>
    <trip id="177" depart="38.87" from="46492034-AddedOffRampEdge" to="-1135361330#1"/>
    <trip id="178" depart="39.09" from="837696046#0" to="-420356169#3"/>
    <trip id="179" depart="39.31" from="420590021#3" to="1071929277#3"/>
    <trip id="180" depart="39.53" from="-5669666#2" to="-571651963#1"/>
    <trip id="181" depart="39.75" from="-837696057#2" to="501844298#4"/>
    <trip id="182" depart="39.97" from="5673619#0" to="404253364#33"/>
    <trip id="183" depart="40.19" from="68196317#0" to="738023850#0"/>
    <trip id="184" depart="40.41" from="497259111#0" to="22904155#0"/>
    <trip id="185" depart="40.63" from="939401952#0" to="1037772009#0"/>
    <trip id="186" depart="40.85" from="727135244#3" to="465067249#0"/>
    <trip id="187" depart="41.07" from="581134345#0" to="-418371676#12"/>
    <trip id="188" depart="41.29" from="581139887#0" to="195743171#0"/>
    <trip id="189" depart="41.51" from="1023238044" to="489090277#0"/>
    <trip id="190" depart="41.73" from="464522037#12" to="1123877141#0"/>
    <trip id="191" depart="41.95" from="-165473832#5" to="953810807"/>
    <trip id="192" depart="42.17" from="-1088005912#1" to="-68674970#2"/>
    <trip id="193" depart="42.39" from="68668544#9" to="226040993#0"/>
    <trip id="194" depart="42.61" from="1021949729#0" to="428569356#0"/>
    <trip id="195" depart="42.83" from="989791208#0" to="420908138#0"/>
    <trip id="196" depart="43.05" from="799833496" to="528792682#0"/>
    <trip id="197" depart="43.27" from="474304540#0" to="-464963297"/>
    <trip id="198" depart="43.49" from="584850103#0" to="1024458697#4"/>
    <trip id="199" depart="43.71" from="1051841853#1" to="44164413#9"/>
    <trip id="200" depart="43.93" from="1049841322#9" to="420354141#0"/>
    <trip id="201" depart="44.15" from="385668565#0" to="1025731518#0"/>
    <trip id="202" depart="44.37" from="420877104#0" to="121772574"/>
    <trip id="203" depart="44.59" from="68668544#14" to="560344314#0"/>
    <trip id="204" depart="44.80" from="439842838#0" to="686125782#66"/>
    <trip id="205" depart="45.02" from="908137267#1" to="5670657"/>
    <trip id="206" depart="45.24" from="618990022#13" to="46443588#0"/>
    <trip id="207" depart="45.46" from="194923800#2" to="46579577#0"/>
    <trip id="208" depart="45.68" from="962831195" to="733667933#0"/>
    <trip id="209" depart="45.90" from="420895421#2" to="195743341#3"/>
    <trip id="210" depart="46.12" from="-454031476#1" to="1025731532#0"/>
    <trip id="211" depart="46.34" from="226040994#0" to="939613200#0"/>
    <trip id="212" depart="46.56" from="447001272#3" to="-194923764#7"/>
    <trip id="213" depart="46.78" from="1298249790#0" to="908150696#0"/>
    <trip id="214" depart="47.00" from="404253364#21" to="5673416#10"/>
    <trip id="215" depart="47.22" from="1304172665" to="1187625139"/>
    <trip id="216" depart="47.44" from="1051266489#0" to="-734561425#14"/>
    <trip id="217" depart="47.66" from="388284037#0" to="68668537#0"/>
    <trip id="218" depart="47.88" from="628093103#0" to="196116976#3"/>
    <trip id="219" depart="48.10" from="-460657164#11" to="-489170297#11"/>
    <trip id="220" depart="48.32" from="-36271338#9" to="-46481744#1"/>
    <trip id="221" depart="48.54" from="5669981#4" to="1027049029"/>
    <trip id="222" depart="48.76" from="-5672060#1" to="997125811#0"/>
    <trip id="223" depart="48.98" from="669610146" to="497262702#0"/>
    <trip id="224" depart="49.20" from="195743197#0" to="46529274#0"/>
    <trip id="225" depart="49.42" from="384178812#0" to="778007333#1"/>
    <trip id="226" depart="49.64" from="1149695048#0" to="46160225#0"/>
    <trip id="227" depart="49.86" from="5670129#10" to="-1080319437#2"/>
    <trip id="228" depart="50.08" from="-196117076#4" to="195743229#0"/>
    <trip id="229" depart="50.30" from="46334580#0" to="420590005#0"/>
    <trip id="230" depart="50.52" from="5672377#0" to="5673018#0"/>
    <trip id="231" depart="50.73" from="1025731525#0" to="-46591058#40"/>
    <trip id="232" depart="50.95" from="-46481744#1" to="525698215#0"/>
    <trip id="233" depart="51.17" from="357946354#6" to="-438389785#1"/>
    <trip id="234" depart="51.39" from="5670470#1" to="944999159#0"/>
    <trip id="235" depart="51.61" from="404253364#9" to="671593547#0"/>
    <trip id="236" depart="51.83" from="46469723#0" to="989159058"/>
    <trip id="237" depart="52.05" from="194923759" to="46443597#4"/>
    <trip id="238" depart="52.27" from="-732794019#13" to="1027189509#2"/>
    <trip id="239" depart="52.49" from="-5672434" to="144944189"/>
    <trip id="240" depart="52.71" from="-623836435#2" to="46469722#0"/>
    <trip id="241" depart="52.93" from="37182106#3" to="-1271523195#1"/>
    <trip id="242" depart="53.15" from="46492638#0" to="1051734607#0"/>
    <trip id="243" depart="53.37" from="420874479#0" to="516664206#0"/>
    <trip id="244" depart="53.59" from="204085725#0" to="458166894#0"/>
    <trip id="245" depart="53.81" from="-988992295#2" to="440122882#0"/>
    <trip id="246" depart="54.03" from="616745173#0" to="-850678169#0"/>
    <trip id="247" depart="54.25" from="5668968#3" to="40337681#0"/>
    <trip id="248" depart="54.47" from="420877099#2" to="575746067#0"/>
    <trip id="249" depart="54.69" from="44763886#0" to="961976870"/>
    <trip id="250" depart="54.91" from="39662323#0" to="-627805511#1"/>
    <trip id="251" depart="55.13" from="-226193929#1" to="-5671220#1"/>
    <trip id="252" depart="55.35" from="188290057#7" to="5673416#4"/>
    <trip id="253" depart="55.57" from="5673077#0" to="420530113#0"/>
    <trip id="254" depart="55.79" from="516664210#0" to="-5670088#2"/>
    <trip id="255" depart="56.01" from="456308945#0" to="420626388#0"/>
    <trip id="256" depart="56.23" from="990219223#0" to="-46591073#11"/>
    <trip id="257" depart="56.45" from="989390264" to="700951339#0"/>
    <trip id="258" depart="56.66" from="420590003#0" to="196117069#5"/>
    <trip id="259" depart="56.88" from="25199883#12" to="5673605#0"/>
    <trip id="260" depart="57.10" from="945966227#2" to="68668562#0"/>
    <trip id="261" depart="57.32" from="396444295#0" to="243056519#0"/>
    <trip id="262" depart="57.54" from="1203138885#0" to="1229513702#0"/>
    <trip id="263" depart="57.76" from="452319915" to="619280607#0"/>
    <trip id="264" depart="57.98" from="542255948#0" to="1076213172#9"/>
    <trip id="265" depart="58.20" from="5672987#0" to="-655255187#4"/>
    <trip id="266" depart="58.42" from="1271523173#0" to="46114474"/>
    <trip id="267" depart="58.64" from="-1080982432" to="-945473889#8"/>
    <trip id="268" depart="58.86" from="5673342#0" to="-195743176#5"/>
    <trip id="269" depart="59.08" from="8119595" to="439933929#0"/>
    <trip id="270" depart="59.30" from="420629940#0" to="447018423#0"/>
    <trip id="271" depart="59.52" from="1062029895#0" to="501844298#4"/>
    <trip id="272" depart="59.74" from="455687907#19" to="664893485#2"/>
    <trip id="273" depart="59.96" from="420877103#0" to="35027229#0"/>
    <trip id="274" depart="60.18" from="-46111605#0" to="-962669696#10"/>
    <trip id="275" depart="60.40" from="5669661#4" to="164843942#0"/>
    <trip id="276" depart="60.62" from="-195743555#3" to="1051841855#4"/>
    <trip id="277" depart="60.84" from="34080062#3" to="5671261#0"/>
    <trip id="278" depart="61.06" from="-195743554#6" to="1080871811"/>
    <trip id="279" depart="61.28" from="963567034#0" to="5671359#0"/>
    <trip id="280" depart="61.50" from="5672149#3" to="-455685737#2"/>
    <trip id="281" depart="61.72" from="994905128#10" to="837696046#0"/>
    <trip id="282" depart="61.94" from="5670774#4" to="5672922#0"/>
    <trip id="283" depart="62.16" from="-1080864181#1" to="-420900705#1"/>
    <trip id="284" depart="62.38" from="46694772#5" to="-5670891#1"/>
    <trip id="285" depart="62.60" from="1086565173#0" to="-5670675#5"/>
    <trip id="286" depart="62.81" from="803024465#2" to="1086766006"/>
    <trip id="287" depart="63.03" from="33146748" to="5672138#0"/>
    <trip id="288" depart="63.25" from="204085724#0" to="489170297#9"/>
    <trip id="289" depart="63.47" from="834235537#0" to="223486853#0"/>
    <trip id="290" depart="63.69" from="223486857#12" to="569345538#0"/>
    <trip id="291" depart="63.91" from="-847920890#1" to="458166897#36"/>
    <trip id="292" depart="64.13" from="1080863335" to="27518032#0"/>
    <trip id="293" depart="64.35" from="1220611715" to="1296083558#0"/>
    <trip id="294" depart="64.57" from="666752576#0" to="46240154#3"/>
    <trip id="295" depart="64.79" from="-421826773#1" to="418371676#19"/>
    <trip id="296" depart="65.01" from="543906141#0" to="5670106#0"/>
    <trip id="297" depart="65.23" from="686125782#0" to="460585328#3"/>
    <trip id="298" depart="65.45" from="5670354#4" to="591772210#0"/>
    <trip id="299" depart="65.67" from="5671739#4" to="-420874488#1"/>
    <trip id="300" depart="65.89" from="-1269117786#1" to="-38605246#2"/>
    <trip id="301" depart="66.11" from="1088327050#0" to="584971532#0"/>
    <trip id="302" depart="66.33" from="46111610#6" to="451954039#0"/>
    <trip id="303" depart="66.55" from="46583483#0" to="46568381#1"/>
    <trip id="304" depart="66.77" from="68668532#12" to="-505598707#1"/>
    <trip id="305" depart="66.99" from="32936245#0" to="-440122879#15"/>
    <trip id="306" depart="67.21" from="852992111#0" to="808190576#0"/>
    <trip id="307" depart="67.43" from="496980201#5" to="-497258109#4"/>
    <trip id="308" depart="67.65" from="413203693#0" to="5668968#7"/>
    <trip id="309" depart="67.87" from="195743158#0" to="-5672550#2"/>
    <trip id="310" depart="68.09" from="-5671914#2" to="-962669696#10"/>
    <trip id="311" depart="68.31" from="-5673220#4" to="180719510#6"/>
    <trip id="312" depart="68.53" from="46613634#0" to="22916321"/>
    <trip id="313" depart="68.74" from="46525065#7" to="1198594028#0"/>
    <trip id="314" depart="68.96" from="994905128#19" to="845749144#0"/>
    <trip id="315" depart="69.18" from="-664893485#72" to="468414634#0"/>
    <trip id="316" depart="69.40" from="33146406-AddedOffRampEdge" to="479642043#3"/>
    <trip id="317" depart="69.62" from="422298615#0" to="1238156665#0"/>
    <trip id="318" depart="69.84" from="1027206710#0" to="5672706#0"/>
    <trip id="319" depart="70.06" from="955301424#0" to="584971412#14"/>
    <trip id="320" depart="70.28" from="5670888#4" to="464515890#0"/>
    <trip id="321" depart="70.50" from="164866814#2" to="68674970#0"/>
    <trip id="322" depart="70.72" from="-557733488#2" to="356140737#0"/>
    <trip id="323" depart="70.94" from="990626892#0" to="1202586280#0"/>
    <trip id="324" depart="71.16" from="1013655882#25" to="480112475#0"/>
    <trip id="325" depart="71.38" from="458180199#14" to="-5672662#5"/>
    <trip id="326" depart="71.60" from="1027206710#0" to="384178816#3"/>
    <trip id="327" depart="71.82" from="-46154330#2" to="1024746125#0"/>
    <trip id="328" depart="72.04" from="-164624785#2" to="420590005#0"/>
    <trip id="329" depart="72.26" from="194926855#0" to="-1080864181#1"/>
    <trip id="330" depart="72.48" from="44164413#6" to="5673231#0"/>
    <trip id="331" depart="72.70" from="46201650#0" to="5672871#8"/>
    <trip id="332" depart="72.92" from="5670676#0" to="388281629#0"/>
    <trip id="333" depart="73.14" from="541346245#0" to="-978675658#7"/>
    <trip id="334" depart="73.36" from="-5669802#2" to="630828566#0"/>
    <trip id="335" depart="73.58" from="25199883#9" to="474054794#0"/>
    <trip id="336" depart="73.80" from="686125790#7" to="46111607#17"/>
    <trip id="337" depart="74.02" from="993797891#0" to="1051750428#0"/>
    <trip id="338" depart="74.24" from="404253364#0" to="5669662#0"/>
    <trip id="339" depart="74.46" from="5673018#0" to="-1080862163"/>
    <trip id="340" depart="74.67" from="495253326#2" to="46591058#23"/>
    <trip id="341" depart="74.89" from="46694760#12" to="925874376"/>
    <trip id="342" depart="75.11" from="226041012#0" to="46694760#19"/>
    <trip id="343" depart="75.33" from="973448967#0" to="496980201#2"/>
    <trip id="344" depart="75.55" from="806169765#16" to="-944999160#1"/>
    <trip id="345" depart="75.77" from="812939218#0" to="453367786#3"/>
    <trip id="346" depart="75.99" from="5670640#11" to="320516790#0"/>
    <trip id="347" depart="76.21" from="659645612#0" to="-837696073#2"/>
    <trip id="348" depart="76.43" from="5670859#2" to="746020813#0"/>
    <trip id="349" depart="76.65" from="686125782#54" to="40879214"/>
    <trip id="350" depart="76.87" from="46111610#6" to="-1013655883#1"/>
    <trip id="351" depart="77.09" from="5671339#0" to="1156469033#0"/>
    <trip id="352" depart="77.31" from="5673456" to="1025731534#0"/>
    <trip id="353" depart="77.53" from="889627470#0" to="480682393#0"/>
    <trip id="354" depart="77.75" from="556311124#13" to="5671352#10"/>
    <trip id="355" depart="77.97" from="1029434610#0" to="5671461#1"/>
    <trip id="356" depart="78.19" from="5672910#3" to="993506893#1"/>
    <trip id="357" depart="78.41" from="828292968#0" to="195743150#3"/>
    <trip id="358" depart="78.63" from="460606347#0" to="5670811#5"/>
    <trip id="359" depart="78.85" from="1271523183#0" to="5673465#7"/>
    <trip id="360" depart="79.07" from="420590065#0" to="353133686#0"/>
    <trip id="361" depart="79.29" from="22927463#2" to="646635889#3"/>
    <trip id="362" depart="79.51" from="-478478415#17" to="196117019#7"/>
    <trip id="363" depart="79.73" from="856467893#0" to="955237975#0"/>
    <trip id="364" depart="79.95" from="-630828563#2" to="954178925#0"/>
    <trip id="365" depart="80.17" from="5673064#0" to="1061993519#0"/>
    <trip id="366" depart="80.39" from="-5669666#2" to="5670106#3"/>
    <trip id="367" depart="80.60" from="36806903#0" to="5673443#3"/>
    <trip id="368" depart="80.82" from="745675478#0" to="5672040#0"/>
    <trip id="369" depart="81.04" from="993505682#0" to="46443597#4"/>
    <trip id="370" depart="81.26" from="-1269117785#1" to="652023437#10"/>
    <trip id="371" depart="81.48" from="1081036134" to="1080324903"/>
    <trip id="372" depart="81.70" from="22914179#0" to="-196117023#3"/>
    <trip id="373" depart="81.92" from="1298249792#0" to="845749145#0"/>
    <trip id="374" depart="82.14" from="-384826723#2" to="353220115#12"/>
    <trip id="375" depart="82.36" from="1046751100#0" to="5671255#0"/>
    <trip id="376" depart="82.58" from="194923810#9" to="1136393331#0"/>
    <trip id="377" depart="82.80" from="497250989#0" to="5670594#0"/>
    <trip id="378" depart="83.02" from="5670988#2" to="46579577#0"/>
    <trip id="379" depart="83.24" from="-5672148#4" to="387128267#10"/>
    <trip id="380" depart="83.46" from="122738258" to="5670333"/>
    <trip id="381" depart="83.68" from="194923808#3" to="5671485#0"/>
    <trip id="382" depart="83.90" from="196116989#0" to="455687907#10"/>
    <trip id="383" depart="84.12" from="5671406#6" to="27517865"/>
    <trip id="384" depart="84.34" from="5670733" to="993506891#1"/>
    <trip id="385" depart="84.56" from="946653471#3" to="756449859"/>
    <trip id="386" depart="84.78" from="5671450#0" to="5672337#0"/>
    <trip id="387" depart="85.00" from="616745175#4" to="852992101#0"/>
    <trip id="388" depart="85.22" from="1167572183" to="5672800#0"/>
    <trip id="389" depart="85.44" from="420883173#9" to="194923800#2"/>
    <trip id="390" depart="85.66" from="837696065#0" to="5671197#4"/>
    <trip id="391" depart="85.88" from="-904809349#1" to="388281630#0"/>
    <trip id="392" depart="86.10" from="496990647#6" to="139919706#0"/>
    <trip id="393" depart="86.32" from="5670818#7" to="1081976616#2"/>
    <trip id="394" depart="86.53" from="1052934775#0" to="5670440#0"/>
    <trip id="395" depart="86.75" from="46201666#0" to="-46211840#2"/>
    <trip id="396" depart="86.97" from="-727135244#2" to="1053809535#0"/>
    <trip id="397" depart="87.19" from="420625563#3" to="524361790"/>
    <trip id="398" depart="87.41" from="5672987#0" to="480112476#2"/>
    <trip id="399" depart="87.63" from="666752576#0" to="308329352#9"/>
    <trip id="400" depart="87.85" from="-1146402186#1" to="-584971443"/>
    <trip id="401" depart="88.07" from="420625570#0" to="195743297#0"/>
    <trip id="402" depart="88.29" from="607091411#3" to="458166897#15"/>
    <trip id="403" depart="88.51" from="46154324#0" to="420809408#0"/>
    <trip id="404" depart="88.73" from="420877098#3" to="5670707#0"/>
    <trip id="405" depart="88.95" from="46211840#6" to="-439801907#11"/>
    <trip id="406" depart="89.17" from="320516790#0" to="5673073#6"/>
    <trip id="407" depart="89.39" from="1071929277#3" to="-308329351"/>
    <trip id="408" depart="89.61" from="-223486858#35" to="-420357621#3"/>
    <trip id="409" depart="89.83" from="5673035#0" to="186202420#0"/>
    <trip id="410" depart="90.05" from="46481755#0" to="197294051#0"/>
    <trip id="411" depart="90.27" from="46111607#20" to="828292967"/>
    <trip id="412" depart="90.49" from="955261513#0" to="822128685#0"/>
    <trip id="413" depart="90.71" from="104169857#1" to="-195743188#2"/>