<?xml version="1.0" encoding="UTF-8"?>

<!-- generated on 2025-08-01 23:38:07.364839 by randomTrips.py UNKNOWN
<configuration>
    <net-file value="./osm.net.xml"/>
    <output-trip-file value="random_trips_3600_id20.rou.xml"/>
    <random value="True"/>
    <validate value="True"/>
    <insertion-density value="20.0"/>
</configuration>
-->

<routes xmlns:xsi="http://www.w3.org/2001/XMLSchema-instance" xsi:noNamespaceSchemaLocation="http://sumo.dlr.de/xsd/routes_file.xsd">
    <trip id="0" depart="0.00" from="5673351#0" to="5671668#4"/>
    <trip id="1" depart="0.11" from="1214511871" to="-420881456#1"/>
    <trip id="2" depart="0.22" from="812939218#2" to="181699235#0"/>
    <trip id="3" depart="0.33" from="420590070#0" to="990626917#3"/>
    <trip id="4" depart="0.44" from="223486853#0" to="5672217#3"/>
    <trip id="5" depart="0.55" from="778007333#1" to="1271523191#0"/>
    <trip id="6" depart="0.66" from="-195743170" to="5671901"/>
    <trip id="7" depart="0.77" from="1081031900" to="-47845042#2"/>
    <trip id="8" depart="0.88" from="1224480435#0" to="5673052#6"/>
    <trip id="9" depart="0.99" from="164866814#2" to="416618175#0"/>
    <trip id="10" depart="1.10" from="61914063#3" to="420885235#0"/>
    <trip id="11" depart="1.21" from="-46160403#2" to="697704857#0"/>
    <trip id="12" depart="1.32" from="-747825750#1" to="420877094#3"/>
    <trip id="13" depart="1.43" from="-195743208#6" to="1029434609"/>
    <trip id="14" depart="1.54" from="36807165" to="5670308#0"/>
    <trip id="15" depart="1.65" from="421825696" to="-420886628#1"/>
    <trip id="16" depart="1.76" from="1296083558#0" to="806195280#14"/>
    <trip id="17" depart="1.87" from="968418375#0" to="420863274#0"/>
    <trip id="18" depart="1.98" from="-125525165#4" to="957049320#0"/>
    <trip id="19" depart="2.09" from="-247047850" to="5671811#0"/>
    <trip id="20" depart="2.20" from="46563061#0" to="439842837#0"/>
    <trip id="21" depart="2.31" from="556311124#0" to="420496091#6"/>
    <trip id="22" depart="2.42" from="46613656#6" to="1269117785#0"/>
    <trip id="23" depart="2.53" from="420908132#0" to="1053552023"/>
    <trip id="24" depart="2.64" from="195743301#0" to="195743193#5"/>
    <trip id="25" depart="2.75" from="420907906#0" to="46224832#3"/>
    <trip id="26" depart="2.86" from="420878090#0" to="986807784#0"/>
    <trip id="27" depart="2.97" from="988956476" to="22941930#1"/>
    <trip id="28" depart="3.07" from="5671353#4" to="196117056#5"/>
    <trip id="29" depart="3.18" from="5668989#0" to="941943232#0"/>
    <trip id="30" depart="3.29" from="954503819#0" to="5672501#9"/>
    <trip id="31" depart="3.40" from="736297373#0" to="658583344#17"/>
    <trip id="32" depart="3.51" from="993368839#0" to="32937066#0"/>
    <trip id="33" depart="3.62" from="1003905443#0" to="-5669892#6"/>
    <trip id="34" depart="3.73" from="439801907#2" to="5671628#7"/>
    <trip id="35" depart="3.84" from="5673307#3" to="46201644"/>
    <trip id="36" depart="3.95" from="-584971469#3" to="-845749144#5"/>
    <trip id="37" depart="4.06" from="542255948#0" to="348477348#0"/>
    <trip id="38" depart="4.17" from="46111610#13" to="694312424#0"/>
    <trip id="39" depart="4.28" from="5670087#0" to="-561084838#8"/>
    <trip id="40" depart="4.39" from="420598339#0" to="46240373#10"/>
    <trip id="41" depart="4.50" from="315174425#2" to="196116974#0"/>
    <trip id="42" depart="4.61" from="1051751160#0" to="1053628248#0"/>
    <trip id="43" depart="4.72" from="278882487#10" to="-421506977"/>
    <trip id="44" depart="4.83" from="-46165819#1" to="5671623#3"/>
    <trip id="45" depart="4.94" from="420810621#0" to="961976871#1"/>
    <trip id="46" depart="5.05" from="994905128#3" to="388281630#0"/>
    <trip id="47" depart="5.16" from="8119611" to="767398933#0"/>
    <trip id="48" depart="5.27" from="420355076#0" to="5671684#0"/>
    <trip id="49" depart="5.38" from="-439842840" to="1059314985#0"/>
    <trip id="50" depart="5.49" from="664893485#21" to="420883173#9"/>
    <trip id="51" depart="5.60" from="5671629#0" to="-46154337#8"/>
    <trip id="52" depart="5.71" from="945384088#3" to="-223503126#1"/>
    <trip id="53" depart="5.82" from="895398381#0" to="46613634#5"/>
    <trip id="54" depart="5.93" from="5672662#6" to="5669596"/>
    <trip id="55" depart="6.04" from="-420894363#1" to="388284037#0"/>
    <trip id="56" depart="6.15" from="-420522443#2" to="46110589"/>
    <trip id="57" depart="6.26" from="421853599#0" to="353220115#18"/>
    <trip id="58" depart="6.37" from="963977113" to="1135361170#0"/>
    <trip id="59" depart="6.48" from="497250986#0" to="981144708#0"/>
    <trip id="60" depart="6.59" from="5669661#4" to="444907552#3"/>
    <trip id="61" depart="6.70" from="382740985#0" to="993495870#0"/>
    <trip id="62" depart="6.81" from="421853953#0" to="-439801905#6"/>
    <trip id="63" depart="6.92" from="-480682396#1" to="46610725#6"/>
    <trip id="64" depart="7.03" from="-525656841#2" to="954178925#0"/>
    <trip id="65" depart="7.14" from="348488665#2" to="1146402199#0"/>
    <trip id="66" depart="7.25" from="460585328#0" to="46111610#4"/>
    <trip id="67" depart="7.36" from="387128267#3" to="22942163"/>
    <trip id="68" depart="7.47" from="46350693#0" to="5669322#0"/>
    <trip id="69" depart="7.58" from="-1081824061#3" to="224065676#3"/>
    <trip id="70" depart="7.69" from="-22904149#1" to="1088320654#0"/>
    <trip id="71" depart="7.80" from="-46694758#1" to="-420894370#1"/>
    <trip id="72" depart="7.91" from="944999162#0" to="164873888#0"/>
    <trip id="73" depart="8.02" from="226041031" to="357946354#0"/>
    <trip id="74" depart="8.13" from="46546766#1" to="1007837779#0"/>
    <trip id="75" depart="8.24" from="420904838" to="5673220#0"/>
    <trip id="76" depart="8.35" from="-560788343#2" to="848021603#0"/>
    <trip id="77" depart="8.46" from="196117069#0" to="164873888#0"/>
    <trip id="78" depart="8.57" from="1169395569" to="-5672662#8"/>
    <trip id="79" depart="8.68" from="-195745913#5" to="-68668523#14"/>
    <trip id="80" depart="8.79" from="944990228#0" to="1157765268#0"/>
    <trip id="81" depart="8.90" from="387128267#19" to="169383516#0"/>
    <trip id="82" depart="9.00" from="5668968#10" to="-196116972#14"/>
    <trip id="83" depart="9.11" from="46481738#3" to="68668523#24"/>
    <trip id="84" depart="9.22" from="607091411#9" to="68196323#0"/>
    <trip id="85" depart="9.33" from="-169381959#1" to="-1231600246"/>
    <trip id="86" depart="9.44" from="557733488#6" to="-22904149#1"/>
    <trip id="87" depart="9.55" from="980885912#4" to="-664893485#50"/>
    <trip id="88" depart="9.66" from="955261517#0" to="-655255187#2"/>
    <trip id="89" depart="9.77" from="451954843" to="11305103"/>
    <trip id="90" depart="9.88" from="195743166#7" to="37890350#0"/>
    <trip id="91" depart="9.99" from="420894366#0" to="1088325196#0"/>
    <trip id="92" depart="10.10" from="5670832#0" to="453367786#3"/>
    <trip id="93" depart="10.21" from="439801897#0" to="420898207#0"/>
    <trip id="94" depart="10.32" from="125479721#0" to="-584971439#1"/>
    <trip id="95" depart="10.43" from="664893485#51" to="195743204#0"/>
    <trip id="96" depart="10.54" from="420625575#3" to="-939682424#2"/>
    <trip id="97" depart="10.65" from="8119595" to="46443656#13"/>
    <trip id="98" depart="10.76" from="799833496" to="957049322#4"/>
    <trip id="99" depart="10.87" from="525698215#0" to="-1271523180#1"/>
    <trip id="100" depart="10.98" from="196117086#3" to="663630710#0"/>
    <trip id="101" depart="11.09" from="1071929277#0" to="195743217#3"/>
    <trip id="102" depart="11.20" from="-497165757#3" to="1197063255"/>
    <trip id="103" depart="11.31" from="652023442#0" to="1025731528#0"/>
    <trip id="104" depart="11.42" from="-196116967#14" to="195743186#0"/>
    <trip id="105" depart="11.53" from="1123883123#0" to="1068246256#0"/>
    <trip id="106" depart="11.64" from="-616745173#2" to="658498537"/>
    <trip id="107" depart="11.75" from="686125782#60" to="685336387#0"/>
    <trip id="108" depart="11.86" from="-46591058#37" to="962669696#9"/>
    <trip id="109" depart="11.97" from="496989355#3" to="1278214314#0"/>
    <trip id="110" depart="12.08" from="-490899141#1" to="46349386#0"/>
    <trip id="111" depart="12.19" from="693941783" to="194923802#2"/>
    <trip id="112" depart="12.30" from="195743196" to="-988992295#2"/>
    <trip id="113" depart="12.41" from="195743193#5" to="46608205#6"/>
    <trip id="114" depart="12.52" from="947246662" to="1003905440#0"/>
    <trip id="115" depart="12.63" from="196117086#3" to="-581134346#2"/>
    <trip id="116" depart="12.74" from="763303893#0" to="308322447#0"/>
    <trip id="117" depart="12.85" from="1088321125#0" to="813970416#0"/>
    <trip id="118" depart="12.96" from="496978219#0" to="420625563#0"/>
    <trip id="119" depart="13.07" from="226015267#3" to="837450654#0"/>
    <trip id="120" depart="13.18" from="420894365#0" to="-308329352#8"/>
    <trip id="121" depart="13.29" from="1053644747#0" to="5671717#0"/>
    <trip id="122" depart="13.40" from="-196117053#1" to="856467893#0"/>
    <trip id="123" depart="13.51" from="-1146402201#1" to="421853599#0"/>
    <trip id="124" depart="13.62" from="46591058#32" to="1268093037#0"/>
    <trip id="125" depart="13.73" from="195743554#4" to="735173276#0"/>
    <trip id="126" depart="13.84" from="-454031476#1" to="46610734#0"/>
    <trip id="127" depart="13.95" from="458166897#0" to="5669978#2"/>
    <trip id="128" depart="14.06" from="420878079#0" to="-195743154#1"/>
    <trip id="129" depart="14.17" from="551646029#6" to="-623836435#2"/>
    <trip id="130" depart="14.28" from="5668973#0" to="1038972476"/>
    <trip id="131" depart="14.39" from="455685737#0" to="1124078899#0"/>
    <trip id="132" depart="14.50" from="104315946#0" to="5672430#0"/>
    <trip id="133" depart="14.61" from="-196116972#5" to="957532385"/>
    <trip id="134" depart="14.72" from="46111607#17" to="579565231#6"/>
    <trip id="135" depart="14.83" from="5669962#16" to="988956476"/>
    <trip id="136" depart="14.93" from="990626912#0" to="-46577961#4"/>
    <trip id="137" depart="15.04" from="-68668555#1" to="420886252#0"/>
    <trip id="138" depart="15.15" from="538831851#0" to="5671172#0"/>
    <trip id="139" depart="15.26" from="-195743555#3" to="1188730083#3"/>
    <trip id="140" depart="15.37" from="196116982#0" to="164877022#12"/>
    <trip id="141" depart="15.48" from="5673210#8" to="5670099#0"/>
    <trip id="142" depart="15.59" from="464515614#3" to="-440122910#2"/>
    <trip id="143" depart="15.70" from="1203376569#0" to="464988510#0"/>
    <trip id="144" depart="15.81" from="46332307#0" to="989265274#0"/>
    <trip id="145" depart="15.92" from="243046573#11" to="813970416#0"/>
    <trip id="146" depart="16.03" from="621557578" to="5672478"/>
    <trip id="147" depart="16.14" from="68196323#2" to="945384091#0"/>
    <trip id="148" depart="16.25" from="46694762#3" to="46240205#0"/>
    <trip id="149" depart="16.36" from="5671540#11" to="5669813#0"/>
    <trip id="150" depart="16.47" from="387128267#19" to="1266830888#3"/>
    <trip id="151" depart="16.58" from="834043284#0" to="164839573#7"/>
    <trip id="152" depart="16.69" from="-420590054#2" to="46139034#0"/>
    <trip id="153" depart="16.80" from="308322446#0" to="226007050#0"/>
    <trip id="154" depart="16.91" from="1030119893#0" to="198595470"/>
    <trip id="155" depart="17.02" from="-5671345#2" to="990626895#3"/>
    <trip id="156" depart="17.13" from="46608204#0" to="46525058#0"/>
    <trip id="157" depart="17.24" from="5670640#0" to="352858052#0"/>
    <trip id="158" depart="17.35" from="654756710#0" to="-944730280#2"/>
    <trip id="159" depart="17.46" from="1027227120#0" to="-5671681#1"/>
    <trip id="160" depart="17.57" from="1268093038#18" to="458166896#0"/>
    <trip id="161" depart="17.68" from="5671291#3" to="1004369133#0"/>
    <trip id="162" depart="17.79" from="22898269#0" to="47796374#0"/>
    <trip id="163" depart="17.90" from="68668546#0" to="46594123#0"/>
    <trip id="164" depart="18.01" from="324118557#0" to="-234726497#1"/>
    <trip id="165" depart="18.12" from="993495868#8" to="5670594#3"/>
    <trip id="166" depart="18.23" from="-845781908#2" to="658579519#0"/>
    <trip id="167" depart="18.34" from="5673210#2" to="497769953#0"/>
    <trip id="168" depart="18.45" from="414744944" to="122738258"/>
    <trip id="169" depart="18.56" from="-653406301#1" to="551646029#3"/>
    <trip id="170" depart="18.67" from="222299242#0" to="226015266#0"/>
    <trip id="171" depart="18.78" from="-5671485#19" to="978439473#0"/>
    <trip id="172" depart="18.89" from="569369532#0" to="5671668#7"/>
    <trip id="173" depart="19.00" from="733393251" to="845741670#0"/>
    <trip id="174" depart="19.11" from="420512232#0" to="1024634984#0"/>
    <trip id="175" depart="19.22" from="850894487#0" to="5671945#0"/>
    <trip id="176" depart="19.33" from="-747825750#1" to="1146402201#0"/>
    <trip id="177" depart="19.44" from="525667720#0" to="5670169#7"/>
    <trip id="178" depart="19.55" from="46224832#3" to="467222812#9"/>
    <trip id="179" depart="19.66" from="421853952#0" to="5670354#8"/>
    <trip id="180" depart="19.77" from="497746843#0" to="195743323#0"/>
    <trip id="181" depart="19.88" from="480112478#0" to="197469195#0"/>
    <trip id="182" depart="19.99" from="1051743127#0" to="1018454469#0"/>
    <trip id="183" depart="20.10" from="-990628955" to="463033874#0"/>
    <trip id="184" depart="20.21" from="511673770#0" to="465098290#0"/>
    <trip id="185" depart="20.32" from="837696057#0" to="988994184"/>
    <trip id="186" depart="20.43" from="1095014324#2" to="222299274#0"/>
    <trip id="187" depart="20.54" from="5670797#10" to="-46591058#3"/>
    <trip id="188" depart="20.65" from="-973117512" to="320516786#0"/>
    <trip id="189" depart="20.76" from="992405802#0" to="46334580#7"/>
    <trip id="190" depart="20.87" from="1049948413#0" to="46613661#0"/>
    <trip id="191" depart="20.97" from="1123877140#0" to="497746842#0"/>
    <trip id="192" depart="21.08" from="458166892#0" to="501844298#4"/>
    <trip id="193" depart="21.19" from="-195743169#3" to="5673236#0"/>
    <trip id="194" depart="21.30" from="420878099#0" to="-5671485#13"/>
    <trip id="195" depart="21.41" from="978645353#4" to="353135767#0"/>
    <trip id="196" depart="21.52" from="5670578#15" to="-388695705#2"/>
    <trip id="197" depart="21.63" from="420898207#0" to="1043341295#0"/>
    <trip id="198" depart="21.74" from="380096992#0" to="252227354#2"/>
    <trip id="199" depart="21.85" from="420895276" to="968393463#0"/>
    <trip id="200" depart="21.96" from="1021949730#0" to="-5671307#8"/>
    <trip id="201" depart="22.07" from="5671739#0" to="204082722#0"/>
    <trip id="202" depart="22.18" from="464522037#15" to="663634122#8"/>
    <trip id="203" depart="22.29" from="5671436#2" to="525658419#0"/>
    <trip id="204" depart="22.40" from="5671540#0" to="492148701#0"/>
    <trip id="205" depart="22.51" from="46694760#0" to="68668537#3"/>
    <trip id="206" depart="22.62" from="-1080982434#1" to="421853641#0"/>
    <trip id="207" depart="22.73" from="195743204#0" to="908150696#0"/>
    <trip id="208" depart="22.84" from="46201655#2" to="1080185970#0"/>
    <trip id="209" depart="22.95" from="11305103" to="46593524#6"/>
    <trip id="210" depart="23.06" from="-1081978814" to="188559800#3"/>
    <trip id="211" depart="23.17" from="164756916#0" to="-196117064#3"/>
    <trip id="212" depart="23.28" from="1052934775#0" to="195743225#0"/>
    <trip id="213" depart="23.39" from="994905128#6" to="489170295#0"/>
    <trip id="214" depart="23.50" from="5671593" to="1224480430#0"/>
    <trip id="215" depart="23.61" from="68668559#6" to="420276995#0"/>
    <trip id="216" depart="23.72" from="723323622#0" to="569266494#3"/>
    <trip id="217" depart="23.83" from="506680906#0" to="46694760#9"/>
    <trip id="218" depart="23.94" from="1051841858#0" to="-418371676#21"/>
    <trip id="219" depart="24.05" from="-438389785#1" to="223486857#27"/>
    <trip id="220" depart="24.16" from="849942510#0" to="5669423"/>
    <trip id="221" depart="24.27" from="420905718#0" to="-418371676#27"/>
    <trip id="222" depart="24.38" from="464683344#0" to="420892265#0"/>
    <trip id="223" depart="24.49" from="275298553#1" to="68668523#21"/>
    <trip id="224" depart="24.60" from="420890029#0" to="33145977#0"/>
    <trip id="225" depart="24.71" from="226041028#0" to="5672309#0"/>
    <trip id="226" depart="24.82" from="986808853#0" to="196117086#14"/>
    <trip id="227" depart="24.93" from="1027227121#0" to="5673102#7"/>
    <trip id="228" depart="25.04" from="68668559#6" to="845749144#0"/>
    <trip id="229" depart="25.15" from="5669899#0" to="654560917#0"/>
    <trip id="230" depart="25.26" from="1123883123#0" to="46583480#2"/>
    <trip id="231" depart="25.37" from="167922072#0" to="196117091#0"/>
    <trip id="232" depart="25.48" from="5672180#0" to="-584971474#9"/>
    <trip id="233" depart="25.59" from="-46111605#0" to="1024458694#0"/>
    <trip id="234" depart="25.70" from="1032460513#12" to="5670481"/>
    <trip id="235" depart="25.81" from="993379223#0" to="22927765#0"/>
    <trip id="236" depart="25.92" from="421853641#0" to="420623126#0"/>
    <trip id="237" depart="26.03" from="-46613627#2" to="497259111#7"/>
    <trip id="238" depart="26.14" from="195743223#0" to="420894363#0"/>
    <trip id="239" depart="26.25" from="511699185#0" to="1088320647#0"/>
    <trip id="240" depart="26.36" from="46610727#2" to="420908129#0"/>
    <trip id="241" depart="26.47" from="849631959#2" to="-587038050#2"/>
    <trip id="242" depart="26.58" from="420625563#0" to="767729564#0"/>
    <trip id="243" depart="26.69" from="1202638287#3" to="837515835#0"/>
    <trip id="244" depart="26.80" from="1080982440#0" to="-46160106"/>
    <trip id="245" depart="26.90" from="-623836438#3" to="1030243873#0"/>
    <trip id="246" depart="27.01" from="195743214#0" to="621785405#0"/>
    <trip id="247" depart="27.12" from="22927462#6" to="980885917#0"/>
    <trip id="248" depart="27.23" from="68325061#0" to="164842044"/>
    <trip id="249" depart="27.34" from="5671236" to="39662324#0"/>
    <trip id="250" depart="27.45" from="5670694#3" to="-542215781#4"/>
    <trip id="251" depart="27.56" from="1051841855#4" to="46591058#4"/>
    <trip id="252" depart="27.67" from="1080982432" to="569345544#0"/>
    <trip id="253" depart="27.78" from="1081978812" to="5670988#4"/>
    <trip id="254" depart="27.89" from="420351725#0" to="569369533#0"/>
    <trip id="255" depart="28.00" from="420908134" to="5671540#0"/>
    <trip id="256" depart="28.11" from="1021042405" to="729972918#0"/>
    <trip id="257" depart="28.22" from="-5670253#2" to="-586133545#5"/>
    <trip id="258" depart="28.33" from="458106348#0" to="1076213173#9"/>
    <trip id="259" depart="28.44" from="5670814#13" to="968398607#0"/>
    <trip id="260" depart="28.55" from="420356168#0" to="1061979013#0"/>
    <trip id="261" depart="28.66" from="962623445#0" to="46422586#0"/>
    <trip id="262" depart="28.77" from="5671059#0" to="5671086#0"/>
    <trip id="263" depart="28.88" from="686125782#36" to="1029634742#0"/>
    <trip id="264" depart="28.99" from="955301425#6" to="980885905#0"/>
    <trip id="265" depart="29.10" from="-550514517#5" to="1088327050#4"/>
    <trip id="266" depart="29.21" from="5671162#0" to="517694719"/>
    <trip id="267" depart="29.32" from="420904660#0" to="1003466066"/>
    <trip id="268" depart="29.43" from="993795184" to="-46154337#8"/>
    <trip id="269" depart="29.54" from="506680906#0" to="1106474772#0"/>
    <trip id="270" depart="29.65" from="421827963#0" to="889114533#12"/>
    <trip id="271" depart="29.76" from="5670736#2" to="-1080982430#1"/>
    <trip id="272" depart="29.87" from="428569470#0" to="465098276#0"/>
    <trip id="273" depart="29.98" from="5669881#6" to="1014414688#3"/>
    <trip id="274" depart="30.09" from="804521765#0" to="658583344#6"/>
    <trip id="275" depart="30.20" from="-671201389#1" to="5672409#0"/>
    <trip id="276" depart="30.31" from="421853965#0" to="5670594#0"/>
    <trip id="277" depart="30.42" from="46590817" to="5673211#0"/>
    <trip id="278" depart="30.53" from="226015267#0" to="-420908135"/>
    <trip id="279" depart="30.64" from="381480256#2" to="226007051#0"/>
    <trip id="280" depart="30.75" from="204083298" to="1052934775#0"/>
    <trip id="281" depart="30.86" from="-577976192#3" to="56578204#0"/>
    <trip id="282" depart="30.97" from="420901673#0" to="420598373#0"/>
    <trip id="283" depart="31.08" from="46114496#1" to="420904658#0"/>
    <trip id="284" depart="31.19" from="1167939119#0" to="641914938#0"/>
    <trip id="285" depart="31.30" from="32959280" to="1025731520#0"/>
    <trip id="286" depart="31.41" from="5672315#0" to="68674962#101"/>
    <trip id="287" depart="31.52" from="-5670795#1" to="5671117#0"/>
    <trip id="288" depart="31.63" from="993797891#0" to="1042964168#0"/>
    <trip id="289" depart="31.74" from="5672093#0" to="421850830#0"/>
    <trip id="290" depart="31.85" from="5673085#0" to="420892266#0"/>
    <trip id="291" depart="31.96" from="812949647#0" to="5671645#3"/>
    <trip id="292" depart="32.07" from="837696059#0" to="420598230#0"/>
    <trip id="293" depart="32.18" from="5670797#7" to="-421851201#2"/>
    <trip id="294" depart="32.29" from="569266471#0" to="717625447#0"/>
    <trip id="295" depart="32.40" from="1030123273#3" to="-496977101#6"/>
    <trip id="296" depart="32.51" from="-194926839" to="46116181#0"/>
    <trip id="297" depart="32.62" from="305323031#0" to="46694757#3"/>
    <trip id="298" depart="32.73" from="-195743153#1" to="1167942377#0"/>
    <trip id="299" depart="32.83" from="485176773" to="543908289#0"/>
    <trip id="300" depart="32.94" from="127693102#0" to="671208358#21"/>
    <trip id="301" depart="33.05" from="1024746125#0" to="420871059#0"/>
    <trip id="302" depart="33.16" from="5672524#10" to="-195743554#12"/>
    <trip id="303" depart="33.27" from="5671197#1" to="-46111607#3"/>
    <trip id="304" depart="33.38" from="5671786#0" to="-497259111#6"/>
    <trip id="305" depart="33.49" from="-5669892#3" to="194923759"/>
    <trip id="306" depart="33.60" from="5672656#5" to="925874376"/>
    <trip id="307" depart="33.71" from="164842044" to="-745675478#1"/>
    <trip id="308" depart="33.82" from="5672650#0" to="1059545194#0"/>
    <trip id="309" depart="33.93" from="5670261#0" to="5671693#0"/>
    <trip id="310" depart="34.04" from="569345537#4" to="-734561425#14"/>
    <trip id="311" depart="34.15" from="991939499#2" to="439801899#0"/>
    <trip id="312" depart="34.26" from="46694766#3" to="444907552#3"/>
    <trip id="313" depart="34.37" from="809013918#0" to="528792681#0"/>
    <trip id="314" depart="34.48" from="474635899#0" to="46116180"/>
    <trip id="315" depart="34.59" from="420907902#0" to="421850830#0"/>
    <trip id="316" depart="34.70" from="420590061#0" to="320584278#8"/>
    <trip id="317" depart="34.81" from="111826111#0" to="1049948413#0"/>
    <trip id="318" depart="34.92" from="1266830893#0" to="420358894#0"/>
    <trip id="319" depart="35.03" from="226041003#0" to="-542215781#4"/>
    <trip id="320" depart="35.14" from="-420526338#2" to="460657166#0"/>
    <trip id="321" depart="35.25" from="-36271338#2" to="-46526965#2"/>
    <trip id="322" depart="35.36" from="837696071#0" to="129834314#0"/>
    <trip id="323" depart="35.47" from="-1081895355#1" to="579565234#0"/>
    <trip id="324" depart="35.58" from="-525656841#2" to="-978675658#5"/>
    <trip id="325" depart="35.69" from="-384826723#2" to="33117583#1"/>
    <trip id="326" depart="35.80" from="717634371#1" to="305323034#0"/>
    <trip id="327" depart="35.91" from="1271518872#3" to="440947098#0"/>
    <trip id="328" depart="36.02" from="847994494#0" to="1117942067#0"/>
    <trip id="329" depart="36.13" from="421853636#3" to="-223902549#2"/>
    <trip id="330" depart="36.24" from="5670971#0" to="556311124#0"/>
    <trip id="331" depart="36.35" from="5673083#0" to="222299254#0"/>
    <trip id="332" depart="36.46" from="997454371" to="-68668523#5"/>
    <trip id="333" depart="36.57" from="444907552#3" to="68668524#0"/>
    <trip id="334" depart="36.68" from="-1203376572#1" to="195743217#3"/>
    <trip id="335" depart="36.79" from="964236031" to="234726492#3"/>
    <trip id="336" depart="36.90" from="5672607#3" to="1211608943#0"/>
    <trip id="337" depart="37.01" from="5671491#8" to="1135576504#0"/>
    <trip id="338" depart="37.12" from="-5671752#1" to="889114527#0"/>
    <trip id="339" depart="37.23" from="420885239#0" to="477151469#0"/>
    <trip id="340" depart="37.34" from="54689817#9" to="5670633#3"/>
    <trip id="341" depart="37.45" from="960060917" to="746020813#0"/>
    <trip id="342" depart="37.56" from="1117942067#0" to="5671788#3"/>
    <trip id="343" depart="37.67" from="-489170295#1" to="-165473832#5"/>
    <trip id="344" depart="37.78" from="5669962#11" to="569345502#0"/>
    <trip id="345" depart="37.89" from="-747908052#2" to="1036712190"/>
    <trip id="346" depart="38.00" from="-770524298#3" to="122738258"/>
    <trip id="347" depart="38.11" from="8119582" to="25166922#0"/>
    <trip id="348" depart="38.22" from="420590059#0" to="-195743135#3"/>
    <trip id="349" depart="38.33" from="946653471#3" to="1135726216#0"/>
    <trip id="350" depart="38.44" from="420886247#0" to="845781114#10"/>
    <trip id="351" depart="38.55" from="5670896#1" to="46591073#6"/>
    <trip id="352" depart="38.66" from="420623117#0" to="46526965#0"/>
    <trip id="353" depart="38.76" from="5671432#7" to="-1080978585#1"/>
    <trip id="354" depart="38.87" from="46224832#3" to="737431023"/>
    <trip id="355" depart="38.98" from="5671318#0" to="993379229#3"/>
    <trip id="356" depart="39.09" from="340825593-AddedOffRampEdge" to="1174928402#0"/>
    <trip id="357" depart="39.20" from="551074012#2" to="8119581"/>
    <trip id="358" depart="39.31" from="5673052#6" to="845749144#9"/>
    <trip id="359" depart="39.42" from="196117019#4" to="5670029#15"/>
    <trip id="360" depart="39.53" from="962626218#0" to="46693907#6"/>
    <trip id="361" depart="39.64" from="8119569" to="22897720#0"/>
    <trip id="362" depart="39.75" from="156994977#0" to="46568381#1-AddedOnRampEdge"/>
    <trip id="363" depart="39.86" from="978675659" to="195745915#0"/>
    <trip id="364" depart="39.97" from="665503121#0" to="1031408122#0"/>
    <trip id="365" depart="40.08" from="1229513702#0" to="-164873475#4"/>
    <trip id="366" depart="40.19" from="182135969" to="-945473889#8"/>
    <trip id="367" depart="40.30" from="-993510830#3" to="420878117#0"/>
    <trip id="368" depart="40.41" from="46694766#17" to="1021949719#0"/>
    <trip id="369" depart="40.52" from="414893144#0" to="46616996"/>
    <trip id="370" depart="40.63" from="349368177#0" to="497403108"/>
    <trip id="371" depart="40.74" from="46613656#3" to="447018423#4"/>
    <trip id="372" depart="40.85" from="456308945#0" to="584971525#2"/>
    <trip id="373" depart="40.96" from="955293895#2" to="46114483#0"/>
    <trip id="374" depart="41.07" from="501844297#0" to="-46111605#0"/>
    <trip id="375" depart="41.18" from="1024746125#0" to="420354141#0"/>
    <trip id="376" depart="41.29" from="-420904618#3" to="569345502#3"/>
    <trip id="377" depart="41.40" from="813956617#3" to="5669809"/>
    <trip id="378" depart="41.51" from="587061820#0" to="569266478#0"/>
    <trip id="379" depart="41.62" from="-1238545752#2" to="-1126410242#1"/>
    <trip id="380" depart="41.73" from="421838878#0" to="-1092553225#1"/>
    <trip id="381" depart="41.84" from="-5671307#8" to="-497250989#1"/>
    <trip id="382" depart="41.95" from="420355076#0" to="90086361"/>
    <trip id="383" depart="42.06" from="-1123880569#1" to="496990645"/>
    <trip id="384" depart="42.17" from="1003905439#0" to="-945473889#3"/>
    <trip id="385" depart="42.28" from="808473896#3" to="-497252083#2"/>
    <trip id="386" depart="42.39" from="584971412#14" to="195743184#6"/>
    <trip id="387" depart="42.50" from="990626918#0" to="46694772#8"/>
    <trip id="388" depart="42.61" from="144944189" to="569266473#3"/>
    <trip id="389" depart="42.72" from="-194923791#1" to="-194923798#1"/>
    <trip id="390" depart="42.83" from="5671283#0" to="-420598373#1"/>
    <trip id="391" depart="42.94" from="-5673078#1" to="165473832#6"/>
    <trip id="392" depart="43.05" from="243056521#4" to="968740578#0"/>
    <trip id="393" depart="43.16" from="166030812#0" to="5670088#3"/>
    <trip id="394" depart="43.27" from="68674965#0" to="-165473832#11"/>
    <trip id="395" depart="43.38" from="5673110#0" to="837515835#0"/>
    <trip id="396" depart="43.49" from="25199883#0" to="5670131#0"/>
    <trip id="397" depart="43.60" from="-569361666#1" to="46431829#3"/>
    <trip id="398" depart="43.71" from="735173275#0" to="936539648#0"/>
    <trip id="399" depart="43.82" from="1081976618#0" to="623836438#1"/>
    <trip id="400" depart="43.93" from="1025734022#0" to="5671403#6"/>
    <trip id="401" depart="44.04" from="-46240053#0" to="-5670859#16"/>
    <trip id="402" depart="44.15" from="68325075" to="835694479#0"/>
    <trip id="403" depart="44.26" from="-655255187#2" to="895348610#4"/>
    <trip id="404" depart="44.37" from="958188024#0" to="584850102#0"/>
    <trip id="405" depart="44.48" from="421853640#0" to="5670029#12"/>
    <trip id="406" depart="44.59" from="46694760#3" to="46419222#1"/>
    <trip id="407" depart="44.70" from="492148706#3" to="5672654#0"/>
    <trip id="408" depart="44.80" from="560349614#3" to="588157330"/>
    <trip id="409" depart="44.91" from="850894486#1" to="990626914#0"/>
    <trip id="410" depart="45.02" from="987645701" to="-455687907#18"/>
    <trip id="411" depart="45.13" from="1203376569#0" to="814612602#6"/>
    <trip id="412" depart="45.24" from="25199402#5" to="975439536#0"/>
    <trip id="413" depart="45.35" from="643000849#3" to="421840993#0"/>
    <trip id="414" depart="45.46" from="46240154#0" to="-5670675#2"/>