<?xml version="1.0" encoding="UTF-8"?>

<!-- generated on 2025-08-05 14:01:38.359470 by randomTrips.py UNKNOWN
<configuration>
    <net-file value="./osm.net.xml"/>
    <output-trip-file value="random_trips_3600_id30.rou.xml"/>
    <random value="True"/>
    <validate value="True"/>
    <insertion-density value="30.0"/>
</configuration>
-->

<routes xmlns:xsi="http://www.w3.org/2001/XMLSchema-instance" xsi:noNamespaceSchemaLocation="http://sumo.dlr.de/xsd/routes_file.xsd">
    <trip id="0" depart="0.00" from="5670851#0" to="1027227127#0"/>
    <trip id="1" depart="0.07" from="5670600#0" to="908137267#0"/>
    <trip id="2" depart="0.15" from="-439801907#5" to="5672478"/>
    <trip id="3" depart="0.22" from="5671112#0" to="420590070#0"/>
    <trip id="4" depart="0.29" from="1080862170" to="-46211840#8"/>
    <trip id="5" depart="0.37" from="439842817" to="5673077#0"/>
    <trip id="6" depart="0.44" from="164870804#0" to="1024556670#0"/>
    <trip id="7" depart="0.51" from="112116234#0" to="46694772#5"/>
    <trip id="8" depart="0.59" from="962669696#3" to="1106469542#3"/>
    <trip id="9" depart="0.66" from="440122894#0" to="-439801898#1"/>
    <trip id="10" depart="0.73" from="968394450#0" to="939613202#0"/>
    <trip id="11" depart="0.81" from="5670058#0" to="-944713336#1"/>
    <trip id="12" depart="0.88" from="847920890#0" to="195743216#0"/>
    <trip id="13" depart="0.95" from="164420607#2" to="32939000"/>
    <trip id="14" depart="1.02" from="-822072342#2" to="497403108"/>
    <trip id="15" depart="1.10" from="569345538#0" to="958204365"/>
    <trip id="16" depart="1.17" from="569345537#10" to="489022195#0"/>
    <trip id="17" depart="1.24" from="-1271523174#4" to="-276670360#3"/>
    <trip id="18" depart="1.32" from="5670797#16" to="195743305"/>
    <trip id="19" depart="1.39" from="1080862164" to="46160404#0"/>
    <trip id="20" depart="1.46" from="5673406#0" to="375165501#0"/>
    <trip id="21" depart="1.54" from="569266476#0" to="275298530"/>
    <trip id="22" depart="1.61" from="1031978967#0" to="803024465#2"/>
    <trip id="23" depart="1.68" from="5670299#0" to="1022790246#0"/>
    <trip id="24" depart="1.76" from="961825347" to="5671429#3"/>
    <trip id="25" depart="1.83" from="5671540#4" to="46201650#1"/>
    <trip id="26" depart="1.90" from="68668559#0" to="5671009#0"/>
    <trip id="27" depart="1.98" from="-388695705#2" to="-560349614#17"/>
    <trip id="28" depart="2.05" from="-525729008#5" to="-22904149#1"/>
    <trip id="29" depart="2.12" from="5672211#0" to="440122904#0"/>
    <trip id="30" depart="2.20" from="5669370#0" to="-164873475#2"/>
    <trip id="31" depart="2.27" from="32939187#0" to="420882495#2"/>
    <trip id="32" depart="2.34" from="5672896#6" to="5670876#0"/>
    <trip id="33" depart="2.42" from="5672860#17" to="652745786#6"/>
    <trip id="34" depart="2.49" from="421832641#0" to="420886247#0"/>
    <trip id="35" depart="2.56" from="46538405#0" to="439842837#0"/>
    <trip id="36" depart="2.64" from="980924796#1" to="730300445#6"/>
    <trip id="37" depart="2.71" from="5670234#3" to="-68668523#8"/>
    <trip id="38" depart="2.78" from="630828586#3" to="452322757#0"/>
    <trip id="39" depart="2.86" from="5673081#0" to="944999162#6"/>
    <trip id="40" depart="2.93" from="560349614#7" to="1088325198"/>
    <trip id="41" depart="3.00" from="196116982#0" to="5669981#2"/>
    <trip id="42" depart="3.07" from="420810622#0" to="-46583484#3"/>
    <trip id="43" depart="3.15" from="511673770#0" to="556311124#10"/>
    <trip id="44" depart="3.22" from="-837696059#2" to="5669882#3"/>
    <trip id="45" depart="3.29" from="223486858#16" to="5673117"/>
    <trip id="46" depart="3.37" from="1046745000#0" to="420886628#0"/>
    <trip id="47" depart="3.44" from="46130044#4" to="1146748992#0"/>
    <trip id="48" depart="3.51" from="845740587#0" to="5671620#0"/>
    <trip id="49" depart="3.59" from="46165818" to="480112483#0"/>
    <trip id="50" depart="3.66" from="438384693#3" to="-1043350179#2"/>
    <trip id="51" depart="3.73" from="165366872#0" to="112116235#5"/>
    <trip id="52" depart="3.81" from="1090370025#0" to="659714535#0"/>
    <trip id="53" depart="3.88" from="497264367#0" to="413050335#3"/>
    <trip id="54" depart="3.95" from="511930973#0" to="25199883#0"/>
    <trip id="55" depart="4.03" from="5670600#0" to="458180185#0"/>
    <trip id="56" depart="4.10" from="5672315#10" to="1022184082#0"/>
    <trip id="57" depart="4.17" from="5671357#11" to="46443597#0"/>
    <trip id="58" depart="4.25" from="-837696044#2" to="453367786#3"/>
    <trip id="59" depart="4.32" from="847994494#3" to="1250866957#0"/>
    <trip id="60" depart="4.39" from="195743264#2" to="467523298#0"/>
    <trip id="61" depart="4.47" from="68674962#104" to="305323028#0"/>
    <trip id="62" depart="4.54" from="533472943#0" to="420623121#0"/>
    <trip id="63" depart="4.61" from="222299254#0" to="1080873866"/>
    <trip id="64" depart="4.69" from="-195743193#1" to="-5670859#19"/>
    <trip id="65" depart="4.76" from="1021949719#0" to="348488665#0"/>
    <trip id="66" depart="4.83" from="-460657164#14" to="460585328#15"/>
    <trip id="67" depart="4.91" from="46240038" to="-104315947#1"/>
    <trip id="68" depart="4.98" from="1058466923#3" to="420499932#0"/>
    <trip id="69" depart="5.05" from="-195745911#1" to="5671339#3"/>
    <trip id="70" depart="5.12" from="464515259#0" to="1156469243#0"/>
    <trip id="71" depart="5.20" from="1007833787#0" to="1080862175#0"/>
    <trip id="72" depart="5.27" from="412174929#1" to="5671283#0"/>
    <trip id="73" depart="5.34" from="320584278#3" to="420625567#0"/>
    <trip id="74" depart="5.42" from="802292177#0" to="226193929#4"/>
    <trip id="75" depart="5.49" from="5671739#2" to="464516471#0"/>
    <trip id="76" depart="5.56" from="-309956784#8" to="706833046#6"/>
    <trip id="77" depart="5.64" from="46577970#2" to="1156946156#0"/>
    <trip id="78" depart="5.71" from="46520921#0" to="968394454#4"/>
    <trip id="79" depart="5.78" from="5671654#0" to="1081037801#0"/>
    <trip id="80" depart="5.86" from="5671352#10" to="5670971#6"/>
    <trip id="81" depart="5.93" from="1135726216#0" to="5672027#0"/>
    <trip id="82" depart="6.00" from="195743180#12" to="221687788#0"/>
    <trip id="83" depart="6.08" from="46469720#0" to="46211831#0"/>
    <trip id="84" depart="6.15" from="569369533#8" to="968393478#0"/>
    <trip id="85" depart="6.22" from="5673228#0" to="196116983#6"/>
    <trip id="86" depart="6.30" from="-5671086#1" to="1025731518#0"/>
    <trip id="87" depart="6.37" from="-1146402202#1" to="963551553#2"/>
    <trip id="88" depart="6.44" from="5672977#4" to="1146051565#0"/>
    <trip id="89" depart="6.52" from="945464142" to="-560349614#6"/>
    <trip id="90" depart="6.59" from="-196117019#12" to="222299254#0"/>
    <trip id="91" depart="6.66" from="-420872205#2" to="763331304#0"/>
    <trip id="92" depart="6.74" from="-837696072#1" to="46349386#3"/>
    <trip id="93" depart="6.81" from="181699238#0" to="-38605247#3"/>
    <trip id="94" depart="6.88" from="1250866957#0" to="5670814#6"/>
    <trip id="95" depart="6.96" from="25199402#0" to="671208358#0"/>
    <trip id="96" depart="7.03" from="1224593108" to="5672006#0"/>
    <trip id="97" depart="7.10" from="5670310#0" to="-46111605#1"/>
    <trip id="98" depart="7.17" from="986615542#0" to="1227588718#0"/>
    <trip id="99" depart="7.25" from="-5671681#1" to="-5671703#3"/>
    <trip id="100" depart="7.32" from="46139039#0" to="198595548"/>
    <trip id="101" depart="7.39" from="46334664#0" to="-195743186#5"/>
    <trip id="102" depart="7.47" from="682359027" to="-480682396#1"/>
    <trip id="103" depart="7.54" from="-420895732#1" to="273019805"/>
    <trip id="104" depart="7.61" from="46525019#0" to="127693383#0"/>
    <trip id="105" depart="7.69" from="798222129#15" to="608355937#0"/>
    <trip id="106" depart="7.76" from="223503125#0" to="420886246#0"/>
    <trip id="107" depart="7.83" from="505772014#0" to="5672899#3"/>
    <trip id="108" depart="7.91" from="-400456494#1" to="8119481"/>
    <trip id="109" depart="7.98" from="587061856#6" to="961825347"/>
    <trip id="110" depart="8.05" from="420598232#0" to="686125782#57"/>
    <trip id="111" depart="8.13" from="199124544#0" to="447001272#0"/>
    <trip id="112" depart="8.20" from="963551553#11" to="-5671703#3"/>
    <trip id="113" depart="8.27" from="1151033591#0" to="5672899#3"/>
    <trip id="114" depart="8.35" from="798222129#9" to="856467892#0"/>
    <trip id="115" depart="8.42" from="1202571928#0" to="5673296#0"/>
    <trip id="116" depart="8.49" from="46160244#0" to="993797885#0"/>
    <trip id="117" depart="8.57" from="5670673#0" to="5673358#6"/>
    <trip id="118" depart="8.64" from="222299238#0" to="-460657164#8"/>
    <trip id="119" depart="8.71" from="420877096#0" to="1024556686#0"/>
    <trip id="120" depart="8.79" from="1201839361" to="1135361169#0"/>
    <trip id="121" depart="8.86" from="348477349#0" to="652745786#0"/>
    <trip id="122" depart="8.93" from="164870804#0" to="968394455#3"/>
    <trip id="123" depart="9.00" from="1302738039#0" to="1024556668#0"/>
    <trip id="124" depart="9.08" from="46334664#0" to="243046573#11"/>
    <trip id="125" depart="9.15" from="-388316170#2" to="68668523#18"/>
    <trip id="126" depart="9.22" from="157012398#0" to="-421838875#2"/>
    <trip id="127" depart="9.30" from="420895467#0" to="420885236#0"/>
    <trip id="128" depart="9.37" from="806195280#11" to="420878079#0"/>
    <trip id="129" depart="9.44" from="5670354#8" to="587061856#0"/>
    <trip id="130" depart="9.52" from="5672992#0" to="552379876"/>
    <trip id="131" depart="9.59" from="5672447#0" to="5671712#0"/>
    <trip id="132" depart="9.66" from="95181768#2" to="25167210#2"/>
    <trip id="133" depart="9.74" from="5669806#3" to="1080862161#0"/>
    <trip id="134" depart="9.81" from="-226041024#1" to="630828563#0"/>
    <trip id="135" depart="9.88" from="1032460514#1" to="157012386#0"/>
    <trip id="136" depart="9.96" from="880256646#0" to="591772210#3"/>
    <trip id="137" depart="10.03" from="46211846" to="5668977#0"/>
    <trip id="138" depart="10.10" from="46481754#0" to="-194923791#1"/>
    <trip id="139" depart="10.18" from="5672402#0" to="46111607#29"/>
    <trip id="140" depart="10.25" from="198595461#7" to="46694764#14"/>
    <trip id="141" depart="10.32" from="195743180#3" to="165774923"/>
    <trip id="142" depart="10.40" from="1202638283#0" to="798222129#15"/>
    <trip id="143" depart="10.47" from="945944497#0" to="5672262#3"/>
    <trip id="144" depart="10.54" from="273895450#0" to="1080866703#0"/>
    <trip id="145" depart="10.62" from="5670203#4" to="46334593#0"/>
    <trip id="146" depart="10.69" from="953810800#1" to="5672450#0"/>
    <trip id="147" depart="10.76" from="939613202#0" to="433124996#0"/>
    <trip id="148" depart="10.84" from="5673052#6" to="954496239#0"/>
    <trip id="149" depart="10.91" from="1053552023" to="-242517195#2"/>
    <trip id="150" depart="10.98" from="-988956476" to="46201668#4"/>
    <trip id="151" depart="11.05" from="1080862176#0" to="-5670253#2"/>
    <trip id="152" depart="11.13" from="1202586283#0" to="569266484#4"/>
    <trip id="153" depart="11.20" from="980853215#3" to="224065674#2"/>
    <trip id="154" depart="11.27" from="-46139021#2" to="-332388685"/>
    <trip id="155" depart="11.35" from="1230733694" to="-46613656#8"/>
    <trip id="156" depart="11.42" from="194926849#0" to="5670825#0"/>
    <trip id="157" depart="11.49" from="-837696048#1" to="36185649#0"/>
    <trip id="158" depart="11.57" from="-569361666#1" to="-569361676#1"/>
    <trip id="159" depart="11.64" from="1202586282#6" to="-806169765#5"/>
    <trip id="160" depart="11.71" from="-664893485#23" to="223486858#9"/>
    <trip id="161" depart="11.79" from="25199883#6" to="194926855#0"/>
    <trip id="162" depart="11.86" from="46111610#0" to="221687792#0"/>
    <trip id="163" depart="11.93" from="196116972#0" to="420590041#0"/>
    <trip id="164" depart="12.01" from="22898210#0" to="1268093038#12"/>
    <trip id="165" depart="12.08" from="-664893485#81" to="46607937"/>
    <trip id="166" depart="12.15" from="242514169#0" to="46579213#0"/>
    <trip id="167" depart="12.23" from="384649120#11" to="223879811#0"/>
    <trip id="168" depart="12.30" from="278882487#10" to="968393469#0"/>
    <trip id="169" depart="12.37" from="196117065#0" to="767683108#0"/>
    <trip id="170" depart="12.45" from="1021949727#0" to="-196116992#2"/>
    <trip id="171" depart="12.52" from="5672149#0" to="413054286#0"/>
    <trip id="172" depart="12.59" from="770443245" to="847932924#4"/>
    <trip id="173" depart="12.67" from="5671945#0" to="834235544#1"/>
    <trip id="174" depart="12.74" from="353220074#4" to="46201645#0"/>
    <trip id="175" depart="12.81" from="5670734#0" to="813506664#3"/>
    <trip id="176" depart="12.89" from="-164877023#2" to="1029634744#0"/>
    <trip id="177" depart="12.96" from="-46694751#1" to="421825693#0"/>
    <trip id="178" depart="13.03" from="194920159#0" to="46224855"/>
    <trip id="179" depart="13.10" from="5669886#0" to="5670640#11"/>
    <trip id="180" depart="13.18" from="420894363#0" to="452339695#0"/>
    <trip id="181" depart="13.25" from="164877023#0" to="420809443#0"/>
    <trip id="182" depart="13.32" from="5669597" to="-1013655882#2"/>
    <trip id="183" depart="13.40" from="-223486858#21" to="818255303#0"/>
    <trip id="184" depart="13.47" from="1237367870#0" to="165426549#0"/>
    <trip id="185" depart="13.54" from="1029395783" to="125480075#0"/>
    <trip id="186" depart="13.62" from="421832647" to="1106469540#3"/>
    <trip id="187" depart="13.69" from="22914180#0" to="-1146402191#1"/>
    <trip id="188" depart="13.76" from="388167518#0" to="420885240#0"/>
    <trip id="189" depart="13.84" from="889114533#12" to="-194923765"/>
    <trip id="190" depart="13.91" from="-1088325193#1" to="-5671307#8"/>
    <trip id="191" depart="13.98" from="464683344#0" to="195743332#12"/>
    <trip id="192" depart="14.06" from="420358892#0" to="968513230#3"/>
    <trip id="193" depart="14.13" from="-734561425#5" to="947916171#0"/>
    <trip id="194" depart="14.20" from="5672183#0" to="-1080862798#1"/>
    <trip id="195" depart="14.28" from="451808493#1" to="-664893485#67"/>
    <trip id="196" depart="14.35" from="515879032#0" to="5670707#14"/>
    <trip id="197" depart="14.42" from="112116234#4" to="1025731518#3"/>
    <trip id="198" depart="14.50" from="1049841322#9" to="36801164"/>
    <trip id="199" depart="14.57" from="375165664#0" to="5671681#0"/>
    <trip id="200" depart="14.64" from="5673452" to="964236440"/>
    <trip id="201" depart="14.72" from="-196117083#2" to="36806670"/>
    <trip id="202" depart="14.79" from="308329352#6" to="5671222#14"/>
    <trip id="203" depart="14.86" from="22941409#1-AddedOnRampEdge" to="420357622#0"/>
    <trip id="204" depart="14.93" from="1230533115#0" to="963551553#14"/>
    <trip id="205" depart="15.01" from="965833822#0" to="-1088325197#1"/>
    <trip id="206" depart="15.08" from="496978218#0" to="815019389#2"/>
    <trip id="207" depart="15.15" from="68196323#2" to="5671780#0"/>
    <trip id="208" depart="15.23" from="1021051876#0" to="46482600"/>
    <trip id="209" depart="15.30" from="-560349614#9" to="856467894#0"/>
    <trip id="210" depart="15.37" from="1123883123#9" to="420905928#0"/>
    <trip id="211" depart="15.45" from="-226007051#2" to="420888152"/>
    <trip id="212" depart="15.52" from="1024458698#0" to="1080419242#0"/>
    <trip id="213" depart="15.59" from="439801907#2" to="-5671485#16"/>
    <trip id="214" depart="15.67" from="480112482#0" to="-196117056#1"/>
    <trip id="215" depart="15.74" from="658499799" to="226040998#3"/>
    <trip id="216" depart="15.81" from="837696043#0" to="384649120#11"/>
    <trip id="217" depart="15.89" from="68668539#4" to="420905717#0"/>
    <trip id="218" depart="15.96" from="771759765" to="223508330#0"/>
    <trip id="219" depart="16.03" from="630828562#0" to="5670675#3"/>
    <trip id="220" depart="16.11" from="852992111#3" to="-1081895354#1"/>
    <trip id="221" depart="16.18" from="223503123#6" to="671208356#0"/>
    <trip id="222" depart="16.25" from="954503819#4" to="-1159053669#1"/>
    <trip id="223" depart="16.33" from="336872313#1" to="433124968#11"/>
    <trip id="224" depart="16.40" from="125479715#9" to="5670172#6"/>
    <trip id="225" depart="16.47" from="497262776#0" to="5671192#0"/>
    <trip id="226" depart="16.55" from="682359029#0" to="584971530#0"/>
    <trip id="227" depart="16.62" from="-1136699159#2" to="-5672922#2"/>
    <trip id="228" depart="16.69" from="5671743#0" to="1198594029#0"/>
    <trip id="229" depart="16.77" from="46160225#5" to="980885904#1"/>
    <trip id="230" depart="16.84" from="-989265268#2" to="619280617#0"/>
    <trip id="231" depart="16.91" from="195743166#7" to="384178816#0"/>
    <trip id="232" depart="16.98" from="226007052#3" to="418371676#22"/>
    <trip id="233" depart="17.06" from="438383442#4" to="167922070#0"/>
    <trip id="234" depart="17.13" from="5671603#0" to="226015267#0"/>
    <trip id="235" depart="17.20" from="198595460#0" to="46694760#3"/>
    <trip id="236" depart="17.28" from="5670584#0" to="978675658#3"/>
    <trip id="237" depart="17.35" from="420589997#0" to="196116972#6"/>
    <trip id="238" depart="17.42" from="46562939#0" to="47796678"/>
    <trip id="239" depart="17.50" from="196117086#23" to="68668532#12"/>
    <trip id="240" depart="17.57" from="5670776#3" to="5672656#0"/>
    <trip id="241" depart="17.64" from="852992108#0" to="5671295#13"/>
    <trip id="242" depart="17.72" from="420623115#0" to="-497252083#8"/>
    <trip id="243" depart="17.79" from="-420526338#2" to="5673372#0"/>
    <trip id="244" depart="17.86" from="1080866701#0" to="-196117019#8"/>
    <trip id="245" depart="17.94" from="46583483#0" to="164843960#0"/>
    <trip id="246" depart="18.01" from="1106474772#0" to="438381568#2"/>
    <trip id="247" depart="18.08" from="440122876#3" to="111826111#0"/>
    <trip id="248" depart="18.16" from="465000799#0" to="1106469542#0"/>
    <trip id="249" depart="18.23" from="-953819150" to="1207834765#0"/>
    <trip id="250" depart="18.30" from="-1080982432" to="370169932#4"/>
    <trip id="251" depart="18.38" from="465067249#8" to="121772576"/>
    <trip id="252" depart="18.45" from="458180200#0" to="-837696055#1"/>
    <trip id="253" depart="18.52" from="-525658419#1" to="-193048149#2"/>
    <trip id="254" depart="18.60" from="-46111607#19" to="5671009#4"/>
    <trip id="255" depart="18.67" from="695644410#0" to="497264364#0"/>
    <trip id="256" depart="18.74" from="46538335#0" to="524387551#3"/>
    <trip id="257" depart="18.82" from="1061979015#0" to="195743149#2"/>
    <trip id="258" depart="18.89" from="5672315#0" to="420598256#0"/>
    <trip id="259" depart="18.96" from="825236402" to="68668541#3"/>
    <trip id="260" depart="19.03" from="195743305" to="520349854#5"/>
    <trip id="261" depart="19.11" from="171561798" to="167922070#0"/>
    <trip id="262" depart="19.18" from="663797739#0" to="46201677#3"/>
    <trip id="263" depart="19.25" from="5670544#0" to="5671928#0"/>
    <trip id="264" depart="19.33" from="439842838#0" to="5672998#0"/>
    <trip id="265" depart="19.40" from="-845749145#2" to="36806683"/>
    <trip id="266" depart="19.47" from="5669710#7" to="-458106348#3"/>
    <trip id="267" depart="19.55" from="-39662323#5" to="5671920#0"/>
    <trip id="268" depart="19.62" from="121772576-AddedOffRampEdge" to="224065676#6"/>
    <trip id="269" depart="19.69" from="847952488#1" to="420590014#3"/>
    <trip id="270" depart="19.77" from="464683344#0" to="25162679#16"/>
    <trip id="271" depart="19.84" from="-278882488#1" to="1136398322#0"/>
    <trip id="272" depart="19.91" from="1049879868#0" to="456313635"/>
    <trip id="273" depart="19.99" from="1021949718#0" to="5671302#0"/>
    <trip id="274" depart="20.06" from="-46546737#1" to="5672142#3"/>
    <trip id="275" depart="20.13" from="243056525#6" to="438363729#1"/>
    <trip id="276" depart="20.21" from="413045201#3" to="837450655"/>
    <trip id="277" depart="20.28" from="204085726#0" to="1022549186#0"/>
    <trip id="278" depart="20.35" from="-440122879#6" to="-420509471#6"/>
    <trip id="279" depart="20.43" from="1043350179#0" to="1136699159#0"/>
    <trip id="280" depart="20.50" from="5671257#0" to="1134714576#0"/>
    <trip id="281" depart="20.57" from="-195743215#1" to="541442319#0"/>
    <trip id="282" depart="20.65" from="1164426014#0" to="5671593"/>
    <trip id="283" depart="20.72" from="226041025#0" to="1021949729#0"/>
    <trip id="284" depart="20.79" from="1039008582#0" to="944999160#0"/>
    <trip id="285" depart="20.87" from="420904617#0" to="1106482765#3"/>
    <trip id="286" depart="20.94" from="962829745" to="480112476#0"/>
    <trip id="287" depart="21.01" from="767683107#0" to="1027181003#0"/>
    <trip id="288" depart="21.08" from="520532096#0" to="196116990#0"/>
    <trip id="289" depart="21.16" from="195743180#9" to="209462187#0"/>
    <trip id="290" depart="21.23" from="-813956617#8" to="1237429425#0"/>
    <trip id="291" depart="21.30" from="1151036496#0" to="154716101#0"/>
    <trip id="292" depart="21.38" from="195743167#13" to="-320516790#2"/>
    <trip id="293" depart="21.45" from="5671327#0" to="1013655882#16"/>
    <trip id="294" depart="21.52" from="5672896#3" to="709355577#2"/>
    <trip id="295" depart="21.60" from="665503121#0" to="421853641#0"/>
    <trip id="296" depart="21.67" from="-197469195#5" to="404253364#33"/>
    <trip id="297" depart="21.74" from="458180197#0" to="226041016#0"/>
    <trip id="298" depart="21.82" from="-46154287" to="-1080862792#1"/>
    <trip id="299" depart="21.89" from="-46332295#3" to="5671357#8"/>
    <trip id="300" depart="21.96" from="814278018#0" to="812936282#4"/>
    <trip id="301" depart="22.04" from="-223508325#4" to="-226007052#2"/>
    <trip id="302" depart="22.11" from="944713336#0" to="664893485#24"/>
    <trip id="303" depart="22.18" from="1298249790#0" to="584971454#0"/>
    <trip id="304" depart="22.26" from="464683319#0" to="420625561#0"/>
    <trip id="305" depart="22.33" from="1027130511#0" to="46538382"/>
    <trip id="306" depart="22.40" from="-196116969#4" to="5669533"/>
    <trip id="307" depart="22.48" from="5670657" to="5673093#7"/>
    <trip id="308" depart="22.55" from="5671291#0" to="973448966#4"/>
    <trip id="309" depart="22.62" from="1224480432#3" to="5671341#3"/>
    <trip id="310" depart="22.70" from="814612602#0" to="5672107#0"/>
    <trip id="311" depart="22.77" from="5673210#8" to="-164875072"/>
    <trip id="312" depart="22.84" from="-438383442#6" to="-223486858#38"/>
    <trip id="313" depart="22.91" from="68674961#0" to="819074877"/>
    <trip id="314" depart="22.99" from="46563061#0" to="196117028#0"/>
    <trip id="315" depart="23.06" from="974294810#0" to="588314388"/>
    <trip id="316" depart="23.13" from="-732794019#7" to="5672180#0"/>
    <trip id="317" depart="23.21" from="-505478248#1" to="194923786#0"/>
    <trip id="318" depart="23.28" from="46154296#8" to="5670451#0"/>
    <trip id="319" depart="23.35" from="1051750426#0" to="963948844"/>
    <trip id="320" depart="23.43" from="-164877022#5" to="579565233#0"/>
    <trip id="321" depart="23.50" from="584971463#0" to="420878081#0"/>
    <trip id="322" depart="23.57" from="1080862793#0" to="5670076#0"/>
    <trip id="323" depart="23.65" from="1202638283#3" to="993793442#0"/>
    <trip id="324" depart="23.72" from="5670581#0" to="569345536#0"/>
    <trip id="325" depart="23.79" from="420873726#0" to="-1030243874#1"/>
    <trip id="326" depart="23.87" from="-611258687#3" to="1027181006#0"/>
    <trip id="327" depart="23.94" from="888759076#0" to="-46520921#8"/>
    <trip id="328" depart="24.01" from="5671137#10" to="-46154330#8"/>
    <trip id="329" depart="24.09" from="1080864178" to="421853622#0"/>
    <trip id="330" depart="24.16" from="767398934#0" to="-1080862179#1"/>
    <trip id="331" depart="24.23" from="46111629#1" to="5671187#3"/>
    <trip id="332" depart="24.31" from="196117086#6" to="993379227#0"/>
    <trip id="333" depart="24.38" from="439842836#0" to="-739591695#5"/>
    <trip id="334" depart="24.45" from="22927462#6" to="993506899#4"/>
    <trip id="335" depart="24.53" from="-420904621#1" to="421853640#0"/>
    <trip id="336" depart="24.60" from="539024459#0" to="8119481"/>
    <trip id="337" depart="24.67" from="955237975#0" to="-46211840#5"/>
    <trip id="338" depart="24.75" from="438383443#0" to="-664893485#81"/>
    <trip id="339" depart="24.82" from="-5669709#2" to="195743187#3"/>
    <trip id="340" depart="24.89" from="-38605246#2" to="5672524#16"/>
    <trip id="341" depart="24.96" from="1254245277" to="420351722#0"/>
    <trip id="342" depart="25.04" from="-420590041#2" to="166030811#0"/>
    <trip id="343" depart="25.11" from="198595461#7" to="5670859#17"/>
    <trip id="344" depart="25.18" from="-734864200#1" to="8119593"/>
    <trip id="345" depart="25.26" from="-798930997#2" to="994905128#0"/>
    <trip id="346" depart="25.33" from="474304540#0" to="663509731#0"/>
    <trip id="347" depart="25.40" from="420878078#0" to="-407580298#1"/>
    <trip id="348" depart="25.48" from="420883173#3" to="404253364#27"/>
    <trip id="349" depart="25.55" from="278882490#4" to="730300445#0"/>
    <trip id="350" depart="25.62" from="1146402198#0" to="5671086#0"/>
    <trip id="351" depart="25.70" from="-5670859#16" to="5671297#0"/>
    <trip id="352" depart="25.77" from="542257009#3" to="659645612#0"/>
    <trip id="353" depart="25.84" from="420519635#0" to="745675478#0"/>
    <trip id="354" depart="25.92" from="955268214#0" to="56577925#3"/>
    <trip id="355" depart="25.99" from="-195743176#8" to="46114478#3"/>
    <trip id="356" depart="26.06" from="40879221#0" to="1031400324#0"/>
    <trip id="357" depart="26.14" from="837696043#0" to="164873891#0"/>
    <trip id="358" depart="26.21" from="68668556#0" to="837696061#0"/>
    <trip id="359" depart="26.28" from="993495870#0" to="908137267#0"/>
    <trip id="360" depart="26.36" from="1025731514#0" to="195743345#0"/>
    <trip id="361" depart="26.43" from="852992111#0" to="455125048#0"/>
    <trip id="362" depart="26.50" from="630828569#0" to="39956203#3"/>
    <trip id="363" depart="26.58" from="-5671197#3" to="68674965#0"/>
    <trip id="364" depart="26.65" from="837696058#0" to="204085726#0"/>
    <trip id="365" depart="26.72" from="68674958#0" to="32958722"/>
    <trip id="366" depart="26.80" from="226040992#0" to="-166038132#1"/>
    <trip id="367" depart="26.87" from="806169765#3" to="518451322#0"/>
    <trip id="368" depart="26.94" from="204083300" to="-904809350#2"/>
    <trip id="369" depart="27.01" from="1298182741" to="5673309#3"/>
    <trip id="370" depart="27.09" from="963575586#3" to="5673309#3"/>
    <trip id="371" depart="27.16" from="597821266#2" to="-164843933#1"/>
    <trip id="372" depart="27.23" from="525667720#0" to="5671112#0"/>
    <trip id="373" depart="27.31" from="441405435#0" to="1081976610#2"/>
    <trip id="374" depart="27.38" from="164756917#3" to="-223486857#11"/>
    <trip id="375" depart="27.45" from="627805518#0" to="-806472902#2"/>
    <trip id="376" depart="27.53" from="44763887#0" to="686125782#0"/>
    <trip id="377" depart="27.60" from="46577965-AddedOffRampEdge" to="414751576#0"/>
    <trip id="378" depart="27.67" from="46114491" to="46591073#15"/>
    <trip id="379" depart="27.75" from="-195743135#3" to="5672315#0"/>
    <trip id="380" depart="27.82" from="-561084838#5" to="497769953#0"/>
    <trip id="381" depart="27.89" from="194920158#13" to="195743143#12"/>
    <trip id="382" depart="27.97" from="226007071#0" to="414744944"/>
    <trip id="383" depart="28.04" from="5670811#5" to="223503128#0"/>
    <trip id="384" depart="28.11" from="5669866#0" to="458166897#15"/>
    <trip id="385" depart="28.19" from="1051846230#0" to="-223486856#3"/>
    <trip id="386" depart="28.26" from="458180187#6" to="837696056#0"/>
    <trip id="387" depart="28.33" from="958280689#0" to="5671327#0"/>
    <trip id="388" depart="28.41" from="825236402" to="5673351#0"/>
    <trip id="389" depart="28.48" from="-945473887#1" to="1043350176"/>
    <trip id="390" depart="28.55" from="165893413#0" to="-1156469243#2"/>
    <trip id="391" depart="28.63" from="-195743192#1" to="-1230733658"/>
    <trip id="392" depart="28.70" from="420598345#0" to="-834043281"/>
    <trip id="393" depart="28.77" from="5670851#0" to="-1013655882#30"/>
    <trip id="394" depart="28.84" from="988977545#0" to="46588495"/>
    <trip id="395" depart="28.92" from="327917960#3" to="1205900284"/>
    <trip id="396" depart="28.99" from="556311124#13" to="5672487#4"/>
    <trip id="397" depart="29.06" from="68668532#12" to="-224065673#1"/>
    <trip id="398" depart="29.14" from="5672138#3" to="5671429#13"/>
    <trip id="399" depart="29.21" from="46139034#0" to="-46154287"/>
    <trip id="400" depart="29.28" from="-440122880#2" to="224065676#0"/>
    <trip id="401" depart="29.36" from="46334584#0" to="5671172#2"/>
    <trip id="402" depart="29.43" from="958188024#1" to="420898206#0"/>
    <trip id="403" depart="29.50" from="-1271523195#4" to="-664893485#8"/>
    <trip id="404" depart="29.58" from="-46591073#5" to="597821266#2"/>
    <trip id="405" depart="29.65" from="308329353#0" to="164874521#0"/>
    <trip id="406" depart="29.72" from="1252123717#0" to="1024458694#0"/>
    <trip id="407" depart="29.80" from="953810800#0" to="1135661889#0"/>
    <trip id="408" depart="29.87" from="413217631#0" to="-1271523171#1"/>
    <trip id="409" depart="29.94" from="5672615#3" to="5670507#19"/>
    <trip id="410" depart="30.02" from="-103917119#5" to="1043517682"/>
    <trip id="411" depart="30.09" from="439801907#6" to="5671056#3"/>
    <trip id="412" depart="30.16" from="-22904149#1" to="56578204#11"/>
    <trip id="413" depart="30.24" from="-223486857#11" to="-164756917#4"/>
    <trip id="414" depart="30.31" from="-734561425#17" to="5671028#0"/>