<?xml version="1.0" encoding="UTF-8"?>

<!-- generated on 2025-08-03 11:11:06.979405 by randomTrips.py UNKNOWN
<configuration>
    <net-file value="manhattan_small/osm.net.xml"/>
    <output-trip-file value="manhattan_small/random_trips_3600_id30.rou.xml"/>
    <random value="True"/>
    <validate value="True"/>
    <insertion-density value="30.0"/>
</configuration>
-->

<routes xmlns:xsi="http://www.w3.org/2001/XMLSchema-instance" xsi:noNamespaceSchemaLocation="http://sumo.dlr.de/xsd/routes_file.xsd">
    <trip id="0" depart="0.00" from="5669882#3" to="-420623120#2"/>
    <trip id="1" depart="0.13" from="992132288#0" to="46116170#0"/>
    <trip id="2" depart="0.26" from="46160330#3" to="446864090#0"/>
    <trip id="3" depart="0.39" from="-532047247" to="458166897#15"/>
    <trip id="4" depart="0.51" from="989265268#0" to="188290057#10"/>
    <trip id="5" depart="0.64" from="194923800#0" to="439801907#0"/>
    <trip id="6" depart="0.77" from="587061858#15" to="194923795#9"/>
    <trip id="7" depart="0.90" from="5673427#0" to="-837696050#1"/>
    <trip id="8" depart="1.03" from="127691872#3" to="1036712190"/>
    <trip id="9" depart="1.16" from="993368836" to="966146166"/>
    <trip id="10" depart="1.29" from="194923792#0" to="420890023#0"/>
    <trip id="11" depart="1.41" from="710571389#0" to="5670770#0"/>
    <trip id="12" depart="1.54" from="847932924#4" to="458180196#0"/>
    <trip id="13" depart="1.67" from="352705238#0" to="169381958#0"/>
    <trip id="14" depart="1.80" from="5670092#14" to="-978675658#5"/>
    <trip id="15" depart="1.93" from="903593426#0" to="1096427015#3"/>
    <trip id="16" depart="2.06" from="308322448#0" to="-1272613980#2"/>
    <trip id="17" depart="2.18" from="447018423#2" to="1053554762#0"/>
    <trip id="18" depart="2.31" from="32936245#0" to="496989957#0"/>
    <trip id="19" depart="2.44" from="-195743170" to="46139039#3"/>
    <trip id="20" depart="2.57" from="446864088#0" to="-480682391#1"/>
    <trip id="21" depart="2.70" from="497165756#0" to="420892275#0"/>
    <trip id="22" depart="2.83" from="1224480428#0" to="440681437#0"/>
    <trip id="23" depart="2.96" from="464522037#18" to="468414634#3"/>
    <trip id="24" depart="3.08" from="226041023" to="352705238#5"/>
    <trip id="25" depart="3.21" from="-682359868" to="-813972135#2"/>
    <trip id="26" depart="3.34" from="1049837953" to="-813972135#2"/>
    <trip id="27" depart="3.47" from="46350693#0" to="972926362#0"/>
    <trip id="28" depart="3.60" from="659714534#0" to="5670707#3"/>
    <trip id="29" depart="3.73" from="456409016#0" to="569345515#9"/>
    <trip id="30" depart="3.86" from="46443656#20" to="1106469545#0"/>
    <trip id="31" depart="3.98" from="455125048#0" to="5669710#3"/>
    <trip id="32" depart="4.11" from="420901923#0" to="420904621#0"/>
    <trip id="33" depart="4.24" from="164420607#0" to="-480682392#4"/>
    <trip id="34" depart="4.37" from="413054857#8" to="518451327#0"/>
    <trip id="35" depart="4.50" from="989265272#0" to="1027228244#0"/>
    <trip id="36" depart="4.63" from="813956617#3" to="541351705#0"/>
    <trip id="37" depart="4.76" from="413054850#0" to="68668536#0"/>
    <trip id="38" depart="4.88" from="505778913#0" to="420890025#0"/>
    <trip id="39" depart="5.01" from="992405802#0" to="1127573855#0"/>
    <trip id="40" depart="5.14" from="575746067#0" to="837696053"/>
    <trip id="41" depart="5.27" from="-525656852#1" to="-655255187#4"/>
    <trip id="42" depart="5.40" from="-845781908#5" to="46348767#3"/>
    <trip id="43" depart="5.53" from="1177979594#0" to="46629376#0"/>
    <trip id="44" depart="5.66" from="-46524947#4" to="480682395#0"/>
    <trip id="45" depart="5.78" from="1043336433#0" to="433124968#5"/>
    <trip id="46" depart="5.91" from="-5669975#1" to="1049837953"/>
    <trip id="47" depart="6.04" from="46481755#0" to="1238431028#0"/>
    <trip id="48" depart="6.17" from="492148701#2" to="46610724#0"/>
    <trip id="49" depart="6.30" from="-989265269#1" to="413056164#0"/>
    <trip id="50" depart="6.43" from="972926362#0" to="1106469542#6"/>
    <trip id="51" depart="6.55" from="22897720#0" to="1113267323#0"/>
    <trip id="52" depart="6.68" from="256902825#0" to="1271581112#0"/>
    <trip id="53" depart="6.81" from="196117051#6" to="-397839400#3"/>
    <trip id="54" depart="6.94" from="5670092#14" to="1202638283#3"/>
    <trip id="55" depart="7.07" from="1052660936#0" to="812949648#0"/>
    <trip id="56" depart="7.20" from="569345537#10" to="954955255#0"/>
    <trip id="57" depart="7.33" from="686125781#7" to="848016982#0"/>
    <trip id="58" depart="7.45" from="420354146#0" to="-5672646#2"/>
    <trip id="59" depart="7.58" from="1080873865" to="497165753#9"/>
    <trip id="60" depart="7.71" from="-5671197#3" to="420894363#0"/>
    <trip id="61" depart="7.84" from="-1081895353#1" to="480112480#0"/>
    <trip id="62" depart="7.97" from="167922071#0" to="675967321#3"/>
    <trip id="63" depart="8.10" from="5671920#0" to="464683328#0"/>
    <trip id="64" depart="8.23" from="-169381957#2" to="1096427015#0"/>
    <trip id="65" depart="8.35" from="351540625#0" to="-420908127#1"/>
    <trip id="66" depart="8.48" from="-5673078#1" to="496985714#0"/>
    <trip id="67" depart="8.61" from="1188730083#0" to="-845781907#5"/>
    <trip id="68" depart="8.74" from="871693849#0" to="556311124#3"/>
    <trip id="69" depart="8.87" from="46334597#0" to="-22904155#1"/>
    <trip id="70" depart="9.00" from="970628514#0" to="1027206709#3"/>
    <trip id="71" depart="9.13" from="518451327#0" to="195922666#2"/>
    <trip id="72" depart="9.25" from="492148700#0" to="1038784416#0"/>
    <trip id="73" depart="9.38" from="1080862168#0" to="-554083352"/>
    <trip id="74" depart="9.51" from="420809419#5" to="767683108#0"/>
    <trip id="75" depart="9.64" from="5672487#7" to="-872052106"/>
    <trip id="76" depart="9.77" from="1021949729#0" to="5670832#0"/>
    <trip id="77" depart="9.90" from="432550169" to="597821266#7"/>
    <trip id="78" depart="10.03" from="420901922#0" to="36806896#0"/>
    <trip id="79" depart="10.15" from="1061439211#0" to="-420357623"/>
    <trip id="80" depart="10.28" from="1229099860#0" to="414894542#4"/>
    <trip id="81" depart="10.41" from="1049920716#0" to="518451327#3"/>
    <trip id="82" depart="10.54" from="5673622#0" to="420629940#0"/>
    <trip id="83" depart="10.67" from="195745916#0" to="588157337#0"/>
    <trip id="84" depart="10.80" from="5670029#9" to="32946655#0"/>
    <trip id="85" depart="10.92" from="5673210#5" to="5670734#3"/>
    <trip id="86" depart="11.05" from="263563003" to="46160153#0"/>
    <trip id="87" depart="11.18" from="188559800#6" to="852992105#2"/>
    <trip id="88" depart="11.31" from="5670092#30" to="1088320658#0"/>
    <trip id="89" depart="11.44" from="1086267975#0" to="1042970371#0"/>
    <trip id="90" depart="11.57" from="456308943#0" to="118400729#0"/>
    <trip id="91" depart="11.70" from="5672159#0" to="414750042#0"/>
    <trip id="92" depart="11.82" from="-1274636982#2" to="46482540"/>
    <trip id="93" depart="11.95" from="488272734#0" to="1080978583#0"/>
    <trip id="94" depart="12.08" from="955293894" to="46608946#18"/>
    <trip id="95" depart="12.21" from="420895277#0" to="368938762#0"/>
    <trip id="96" depart="12.34" from="654561413" to="22941930#1"/>
    <trip id="97" depart="12.47" from="455501328#0" to="196117001#0"/>
    <trip id="98" depart="12.60" from="455678353#0" to="-579565236#1"/>
    <trip id="99" depart="12.72" from="5672987#0" to="46481738#6"/>
    <trip id="100" depart="12.85" from="497258109#0" to="556311124#19"/>
    <trip id="101" depart="12.98" from="5670418#5" to="456447349#0"/>
    <trip id="102" depart="13.11" from="989265272#0" to="747908053"/>
    <trip id="103" depart="13.24" from="-542096278#3" to="46419222#1"/>
    <trip id="104" depart="13.37" from="-226041024#1" to="474054794#0"/>
    <trip id="105" depart="13.50" from="5673035#0" to="524387551#0"/>
    <trip id="106" depart="13.62" from="1090370025#0" to="386972970#0"/>
    <trip id="107" depart="13.75" from="5672409#0" to="32972072#0"/>
    <trip id="108" depart="13.88" from="458180199#3" to="32946655#0"/>
    <trip id="109" depart="14.01" from="-584971463#4" to="46694760#12"/>
    <trip id="110" depart="14.14" from="-1088320650#1" to="-1088325195#1"/>
    <trip id="111" depart="14.27" from="464683339#3" to="195745916#0"/>
    <trip id="112" depart="14.40" from="1021949722#0" to="420598366#0"/>
    <trip id="113" depart="14.52" from="25199402#5" to="40879214"/>
    <trip id="114" depart="14.65" from="447001272#3" to="1237429425#0"/>
    <trip id="115" depart="14.78" from="591772211#0" to="5672187#0"/>
    <trip id="116" depart="14.91" from="5672899#0" to="347311224"/>
    <trip id="117" depart="15.04" from="40709927#0" to="963975252"/>
    <trip id="118" depart="15.17" from="5673342#0" to="-584971513"/>
    <trip id="119" depart="15.29" from="682359027" to="5671291#3"/>
    <trip id="120" depart="15.42" from="5672524#3" to="742215272#0"/>
    <trip id="121" depart="15.55" from="1051750426#0" to="489375009"/>
    <trip id="122" depart="15.68" from="499172074#0" to="-802292178#1"/>
    <trip id="123" depart="15.81" from="479642033#7" to="-880256646#3"/>
    <trip id="124" depart="15.94" from="46610726#5" to="36806903#0"/>
    <trip id="125" depart="16.07" from="-428569356#1" to="195743158#0"/>
    <trip id="126" depart="16.19" from="496978510#0" to="739911957#0"/>
    <trip id="127" depart="16.32" from="439801899#0" to="-837696055#1"/>
    <trip id="128" depart="16.45" from="156994977#0" to="803024465#2"/>
    <trip id="129" depart="16.58" from="808190584#3" to="-46525019#2"/>
    <trip id="130" depart="16.71" from="-1040863520#2" to="1237670402#0"/>
    <trip id="131" depart="16.84" from="396444293#6" to="196117028#6"/>
    <trip id="132" depart="16.97" from="1224593084" to="-845781908#5"/>
    <trip id="133" depart="17.09" from="46154327#3" to="1135614655#0"/>
    <trip id="134" depart="17.22" from="420629930#0" to="194926855#0"/>
    <trip id="135" depart="17.35" from="584971459#0" to="-167922072#1"/>
    <trip id="136" depart="17.48" from="1027189510#0" to="46420287#0"/>
    <trip id="137" depart="17.61" from="421851200#0" to="463035747"/>
    <trip id="138" depart="17.74" from="-611258687#3" to="451808493#1"/>
    <trip id="139" depart="17.87" from="195743554#4" to="-194923791#1"/>
    <trip id="140" depart="17.99" from="439801907#4" to="587355679"/>
    <trip id="141" depart="18.12" from="-127690685#2" to="388695705#0"/>
    <trip id="142" depart="18.25" from="420906755#0" to="630828555#0"/>
    <trip id="143" depart="18.38" from="992144532#1" to="395037175#0"/>
    <trip id="144" depart="18.51" from="-46524969#1" to="458166897#30"/>
    <trip id="145" depart="18.64" from="154716101#0" to="458180182#0"/>
    <trip id="146" depart="18.77" from="962829745" to="5670719#3"/>
    <trip id="147" depart="18.89" from="134485639" to="-556075523#1"/>
    <trip id="148" depart="19.02" from="-5672922#2" to="1212776159#0"/>
    <trip id="149" depart="19.15" from="988984235#0" to="420895276"/>
    <trip id="150" depart="19.28" from="46154300#5" to="1150636496#0"/>
    <trip id="151" depart="19.41" from="-46201655#1" to="46165819#0"/>
    <trip id="152" depart="19.54" from="5672871#5" to="-5669892#6"/>
    <trip id="153" depart="19.66" from="169267544" to="630828555#0"/>
    <trip id="154" depart="19.79" from="5670458#0" to="465098290#0"/>
    <trip id="155" depart="19.92" from="5669881#0" to="46334594#0"/>
    <trip id="156" depart="20.05" from="375164212" to="968513229#0"/>
    <trip id="157" depart="20.18" from="5670734#4" to="346613529#4"/>
    <trip id="158" depart="20.31" from="-194923760#1" to="397839400#7"/>
    <trip id="159" depart="20.44" from="541331485#0" to="-1080982436#1"/>
    <trip id="160" depart="20.56" from="396444293#6" to="554083353#3"/>
    <trip id="161" depart="20.69" from="-584971531#5" to="812936280#9"/>
    <trip id="162" depart="20.82" from="739591695#3" to="458166897#0"/>
    <trip id="163" depart="20.95" from="5673093#3" to="1014414688#6"/>
    <trip id="164" depart="21.08" from="-1081978814" to="671208358#15"/>
    <trip id="165" depart="21.21" from="496986803#13" to="1049920716#0"/>
    <trip id="166" depart="21.34" from="968393469#0" to="587061855#0"/>
    <trip id="167" depart="21.46" from="222299248#3" to="-1271523174#1"/>
    <trip id="168" depart="21.59" from="497154281#8" to="46608946#15"/>
    <trip id="169" depart="21.72" from="-458106348#3" to="-439801907#8"/>
    <trip id="170" depart="21.85" from="-414751458#2" to="40709928#0"/>
    <trip id="171" depart="21.98" from="169383516#0" to="1106469541#0"/>
    <trip id="172" depart="22.11" from="992141077#12" to="1161025024#0"/>
    <trip id="173" depart="22.24" from="-5672515#2" to="397839400#4"/>
    <trip id="174" depart="22.36" from="-46154330#2" to="895398384#3"/>
    <trip id="175" depart="22.49" from="1267505842#0" to="196117028#3"/>
    <trip id="176" depart="22.62" from="814278021#0" to="5672076"/>
    <trip id="177" depart="22.75" from="1201651435#4" to="68668519#0"/>
    <trip id="178" depart="22.88" from="1202571928#0" to="68668562#0"/>
    <trip id="179" depart="23.01" from="847932331#0" to="-420872199#1"/>
    <trip id="180" depart="23.14" from="-438389785#1" to="5673073#4"/>
    <trip id="181" depart="23.26" from="569345499#0" to="415849235#0"/>
    <trip id="182" depart="23.39" from="587038101#0" to="420906753#0"/>
    <trip id="183" depart="23.52" from="421825696" to="32934351#0"/>
    <trip id="184" depart="23.65" from="1271581112#0" to="-584971524#2"/>
    <trip id="185" depart="23.78" from="808190579#0" to="384649121#0"/>
    <trip id="186" depart="23.91" from="1041018377#0" to="458166893#4"/>
    <trip id="187" depart="24.03" from="46334597#0" to="497746843#3"/>
    <trip id="188" depart="24.16" from="165774923" to="873372086#0"/>
    <trip id="189" depart="24.29" from="767683109" to="-1135342275#4"/>
    <trip id="190" depart="24.42" from="226041007#1" to="997125811#0"/>
    <trip id="191" depart="24.55" from="368938762#0" to="497746843#0"/>
    <trip id="192" depart="24.68" from="-561084838#5" to="584850103#0"/>
    <trip id="193" depart="24.81" from="195743179#6" to="68668529#0"/>
    <trip id="194" depart="24.93" from="1127576696#0" to="515879040#0"/>
    <trip id="195" depart="25.06" from="976050707#0" to="-420908135"/>
    <trip id="196" depart="25.19" from="420892266#0" to="497769952#0"/>
    <trip id="197" depart="25.32" from="46610727#0" to="496978218#0"/>
    <trip id="198" depart="25.45" from="963551553#2" to="5670657"/>
    <trip id="199" depart="25.58" from="5669978#2" to="46482609#0"/>
    <trip id="200" depart="25.71" from="54689817#9" to="226041032#0"/>
    <trip id="201" depart="25.83" from="46469727#3" to="5670092#34"/>
    <trip id="202" depart="25.96" from="347306313#0" to="46608946#9"/>
    <trip id="203" depart="26.09" from="127691872#0" to="587061858#3"/>
    <trip id="204" depart="26.22" from="993368837" to="412180553#2"/>
    <trip id="205" depart="26.35" from="5672550#3" to="1203376574#0"/>
    <trip id="206" depart="26.48" from="458166893#0" to="1198594026#0"/>
    <trip id="207" depart="26.61" from="68668559#6" to="497258109#0"/>
    <trip id="208" depart="26.73" from="675967321#0" to="968394451#0"/>
    <trip id="209" depart="26.86" from="1022822152#0" to="686125782#9"/>
    <trip id="210" depart="26.99" from="32958722" to="1207834767#0"/>
    <trip id="211" depart="27.12" from="22904053#0" to="68668559#0"/>
    <trip id="212" depart="27.25" from="1051856442" to="451954038#0"/>
    <trip id="213" depart="27.38" from="-1229513732#1" to="524363437#2"/>
    <trip id="214" depart="27.50" from="1202586279#0" to="1201728066#0"/>
    <trip id="215" depart="27.63" from="46518732" to="438384693#3"/>
    <trip id="216" depart="27.76" from="396444293#0" to="198595461#7"/>
    <trip id="217" depart="27.89" from="667597422#0" to="467222812#2"/>
    <trip id="218" depart="28.02" from="195743271#0" to="1088327048#0"/>
    <trip id="219" depart="28.15" from="847873802#3" to="5669892#0"/>
    <trip id="220" depart="28.28" from="5671093#0" to="5670106#0"/>
    <trip id="221" depart="28.40" from="846127259#0" to="-226193905#4"/>
    <trip id="222" depart="28.53" from="5670941#0" to="643000849#3"/>
    <trip id="223" depart="28.66" from="569345543#0" to="-739591695#2"/>
    <trip id="224" depart="28.79" from="496982371" to="584971524#0"/>
    <trip id="225" depart="28.92" from="25564592" to="420892271#0"/>
    <trip id="226" depart="29.05" from="589494594#0" to="1197056479"/>
    <trip id="227" depart="29.18" from="579565233#0" to="5670920#0"/>
    <trip id="228" depart="29.30" from="194923786#3" to="-993793442#1"/>
    <trip id="229" depart="29.43" from="420903240#0" to="-1133806010#2"/>
    <trip id="230" depart="29.56" from="-591772210#2" to="467222856#0"/>
    <trip id="231" depart="29.69" from="-837696047#2" to="485165667#0"/>
    <trip id="232" depart="29.82" from="-46154330#5" to="903589928#0"/>
    <trip id="233" depart="29.95" from="1186021636#1" to="421830413"/>
    <trip id="234" depart="30.08" from="-167922076#2" to="488272734#0"/>
    <trip id="235" depart="30.20" from="-908150696#2" to="-195743214#3"/>
    <trip id="236" depart="30.33" from="742007048" to="-1080978584#0"/>
    <trip id="237" depart="30.46" from="464683327#0" to="421853993#0"/>
    <trip id="238" depart="30.59" from="5672377#0" to="1027206709#3"/>
    <trip id="239" depart="30.72" from="808190584#3" to="686125790#4"/>
    <trip id="240" depart="30.85" from="730300445#3" to="489022195#0"/>
    <trip id="241" depart="30.98" from="895348610#4" to="968513230#0"/>
    <trip id="242" depart="31.10" from="46171889#0" to="1088327048#0"/>
    <trip id="243" depart="31.23" from="729972920#0" to="1266830888#3"/>
    <trip id="244" depart="31.36" from="46469731#0" to="1238347039#0"/>
    <trip id="245" depart="31.49" from="1202586284#3" to="569345502#0"/>
    <trip id="246" depart="31.62" from="5671663#0" to="968513231#0"/>
    <trip id="247" depart="31.75" from="5670092#23" to="1144268432#0"/>
    <trip id="248" depart="31.87" from="771939270#0" to="68668524#0"/>
    <trip id="249" depart="32.00" from="-814612602#8" to="32935868"/>
    <trip id="250" depart="32.13" from="1088320650#0" to="767683109"/>
    <trip id="251" depart="32.26" from="968393468#0" to="420894365#0"/>
    <trip id="252" depart="32.39" from="421851200#0" to="140391522#0"/>
    <trip id="253" depart="32.52" from="710571388#0" to="5672871#5"/>
    <trip id="254" depart="32.65" from="1237670402#0" to="5673461#0"/>
    <trip id="255" depart="32.77" from="421832644#4" to="1266830889#0"/>
    <trip id="256" depart="32.90" from="457937084#0" to="542258060#0"/>
    <trip id="257" depart="33.03" from="1051841855#0" to="-451954043"/>
    <trip id="258" depart="33.16" from="420598366#0" to="46332301#7"/>
    <trip id="259" depart="33.29" from="420894375#0" to="1224480434#0"/>
    <trip id="260" depart="33.42" from="1024556674#0" to="1224593108"/>
    <trip id="261" depart="33.55" from="439842835#0" to="25562090#0"/>
    <trip id="262" depart="33.67" from="157012398#0" to="5670651#0"/>
    <trip id="263" depart="33.80" from="474635898#0" to="222299254#0"/>
    <trip id="264" depart="33.93" from="5672951#0" to="907627764#0"/>
    <trip id="265" depart="34.06" from="845781908#0" to="273895450#0"/>
    <trip id="266" depart="34.19" from="19726366#0" to="5669866#5"/>
    <trip id="267" depart="34.32" from="46608946#6" to="671208358#6"/>
    <trip id="268" depart="34.45" from="420281338#0" to="46332295#4"/>
    <trip id="269" depart="34.57" from="-1080319437#2" to="68674962#77"/>
    <trip id="270" depart="34.70" from="5670736#4" to="5670168#3"/>
    <trip id="271" depart="34.83" from="348477348#6" to="46694760#9"/>
    <trip id="272" depart="34.96" from="46694753#4" to="388281632#0"/>
    <trip id="273" depart="35.09" from="1151034558#2" to="1237670402#0"/>
    <trip id="274" depart="35.22" from="40879214" to="36806661"/>
    <trip id="275" depart="35.35" from="195743182#0" to="167922077#0"/>
    <trip id="276" depart="35.47" from="847994493#0" to="414743429#0"/>
    <trip id="277" depart="35.60" from="515879035#0" to="452492203#0"/>
    <trip id="278" depart="35.73" from="5671056#0" to="5671140#0"/>
    <trip id="279" depart="35.86" from="465256869" to="1052686445#0"/>
    <trip id="280" depart="35.99" from="5671341#0" to="-5673372#1"/>
    <trip id="281" depart="36.12" from="32939224#0" to="5670818#0"/>
    <trip id="282" depart="36.24" from="420872214" to="36801164"/>
    <trip id="283" depart="36.37" from="420598310#0" to="1021949728#0"/>
    <trip id="284" depart="36.50" from="194923795#0" to="681061719#0"/>
    <trip id="285" depart="36.63" from="68668562#2" to="-5670238#2"/>
    <trip id="286" depart="36.76" from="370169932#4" to="-1080862162#1"/>
    <trip id="287" depart="36.89" from="1030119893#0" to="541345307#0"/>
    <trip id="288" depart="37.02" from="988984235#0" to="420351719"/>
    <trip id="289" depart="37.14" from="420358896#4" to="1043341289#0"/>
    <trip id="290" depart="37.27" from="496986803#3" to="25167210#4"/>
    <trip id="291" depart="37.40" from="420358897#0" to="414747619#1"/>
    <trip id="292" depart="37.53" from="195743339#12" to="1080982440#0"/>
    <trip id="293" depart="37.66" from="122660454" to="5670070#0"/>
    <trip id="294" depart="37.79" from="5672911#2" to="847998122#0"/>
    <trip id="295" depart="37.92" from="446864091#4" to="54689817#2"/>
    <trip id="296" depart="38.04" from="446864091#7" to="22897633#3"/>
    <trip id="297" depart="38.17" from="446864091#1" to="465098295#0"/>
    <trip id="298" depart="38.30" from="814612602#3" to="388281632#0"/>
    <trip id="299" depart="38.43" from="-699843297" to="5670029#15"/>
    <trip id="300" depart="38.56" from="46154330#3" to="46469726#0"/>
    <trip id="301" depart="38.69" from="5669875#0" to="5671061#0"/>
    <trip id="302" depart="38.82" from="-397839400#12" to="188559800#3"/>
    <trip id="303" depart="38.94" from="968428932" to="1049879866#0"/>
    <trip id="304" depart="39.07" from="1210909171#0" to="1198594026#0"/>
    <trip id="305" depart="39.20" from="252227354#0" to="518451322#0"/>
    <trip id="306" depart="39.33" from="1080982427#0" to="195743224#0"/>
    <trip id="307" depart="39.46" from="5672149#0" to="-68668524#2"/>
    <trip id="308" depart="39.59" from="1227588718#9" to="68668562#2"/>
    <trip id="309" depart="39.72" from="421852041" to="-46160403#2"/>
    <trip id="310" depart="39.84" from="46160365#3" to="-460624363#1"/>
    <trip id="311" depart="39.97" from="464988510#0" to="41520108#0"/>
    <trip id="312" depart="40.10" from="226040998#0" to="412174929#1"/>
    <trip id="313" depart="40.23" from="1080185967#0" to="-813956617#11"/>
    <trip id="314" depart="40.36" from="1021949730#0" to="-46524975#3"/>
    <trip id="315" depart="40.49" from="524387551#0" to="989265269#0"/>
    <trip id="316" depart="40.61" from="1202586282#6" to="5670010#0"/>
    <trip id="317" depart="40.74" from="198924552#0" to="46490538#0"/>
    <trip id="318" depart="40.87" from="25199883#9" to="1050175622#0"/>
    <trip id="319" depart="41.00" from="464683317#0" to="770524299#0"/>
    <trip id="320" depart="41.13" from="1051841858#0" to="169269031"/>
    <trip id="321" depart="41.26" from="165672323#3" to="226040991#0"/>
    <trip id="322" depart="41.39" from="543902513#0" to="5672604#3"/>
    <trip id="323" depart="41.51" from="46521736#0" to="5672925#0"/>
    <trip id="324" depart="41.64" from="466956276#0" to="5673523#0"/>
    <trip id="325" depart="41.77" from="1080978581" to="384649120#8"/>
    <trip id="326" depart="41.90" from="226040995#0" to="46431829#0"/>
    <trip id="327" depart="42.03" from="458106346#4" to="1057527157#0"/>
    <trip id="328" depart="42.16" from="992144532#0" to="-420904659#1"/>
    <trip id="329" depart="42.29" from="496980200#9" to="-837696044#2"/>
    <trip id="330" depart="42.41" from="939613202#0" to="814840327"/>
    <trip id="331" depart="42.54" from="812936280#6" to="-68668529#2"/>
    <trip id="332" depart="42.67" from="1136460176#0" to="5670877#0"/>
    <trip id="333" depart="42.80" from="524817693#0" to="711147864#0"/>
    <trip id="334" depart="42.93" from="127693102#0" to="1061622295#0"/>
    <trip id="335" depart="43.06" from="433442263" to="497498544#0"/>
    <trip id="336" depart="43.19" from="963551553#11" to="540356239#0"/>
    <trip id="337" depart="43.31" from="954955257" to="-420522443#4"/>
    <trip id="338" depart="43.44" from="5670803#0" to="458180192#0"/>
    <trip id="339" depart="43.57" from="156994961#3" to="1230663915#0"/>
    <trip id="340" depart="43.70" from="-381477008#1" to="5670514#0"/>
    <trip id="341" depart="43.83" from="1298186395" to="-1271523171#4"/>
    <trip id="342" depart="43.96" from="847921887#4" to="349873702#0"/>
    <trip id="343" depart="44.09" from="-420904618#3" to="480112475#4"/>
    <trip id="344" depart="44.21" from="991939499#0" to="420888151#0"/>
    <trip id="345" depart="44.34" from="421853952#0" to="456308944#0"/>
    <trip id="346" depart="44.47" from="195743557#2" to="543902513#0"/>
    <trip id="347" depart="44.60" from="1123883123#3" to="-1080982439#1"/>
    <trip id="348" depart="44.73" from="543902512#0" to="324118554#0"/>
    <trip id="349" depart="44.86" from="1224480432#0" to="646635889#3"/>
    <trip id="350" depart="44.98" from="1296664633#0" to="542215989#0"/>
    <trip id="351" depart="45.11" from="1049920717#0" to="-584971513"/>
    <trip id="352" depart="45.24" from="458177131#0" to="321993367#3"/>
    <trip id="353" depart="45.37" from="889114533#0" to="5673157#0"/>
    <trip id="354" depart="45.50" from="44164413#9" to="560788343#0"/>
    <trip id="355" depart="45.63" from="421852029" to="-1088325197#1"/>
    <trip id="356" depart="45.76" from="968393479#12" to="-991205021#2"/>
    <trip id="357" depart="45.88" from="420872214" to="1201643837#0"/>
    <trip id="358" depart="46.01" from="46610721#0" to="439842837#0"/>
    <trip id="359" depart="46.14" from="46492015" to="-46694759#2"/>
    <trip id="360" depart="46.27" from="-958264262#1" to="708353366#0"/>
    <trip id="361" depart="46.40" from="420351725#0" to="46431823#0"/>
    <trip id="362" depart="46.53" from="5672142#6" to="-1188730152#1"/>
    <trip id="363" depart="46.66" from="-46201679#2" to="480112476#2"/>
    <trip id="364" depart="46.78" from="195743344#0" to="458166897#27"/>
    <trip id="365" depart="46.91" from="-46211840#2" to="497251086#3"/>
    <trip id="366" depart="47.04" from="989265270#0" to="464683316#3"/>
    <trip id="367" depart="47.17" from="346613529#10" to="22927463#0"/>
    <trip id="368" depart="47.30" from="433124968#11" to="479642033#4"/>
    <trip id="369" depart="47.43" from="1111706621" to="195743190#0"/>
    <trip id="370" depart="47.56" from="465098276#0" to="-420900705#1"/>
    <trip id="371" depart="47.68" from="584971443" to="497746842#0"/>
    <trip id="372" depart="47.81" from="706833047#0" to="464683329#3"/>
    <trip id="373" depart="47.94" from="904809348#0" to="-194926840#1"/>
    <trip id="374" depart="48.07" from="46525011#0" to="1167572182"/>
    <trip id="375" depart="48.20" from="-1080862180#2" to="68668536#0"/>
    <trip id="376" depart="48.33" from="858965316#0" to="420356171#0"/>
    <trip id="377" depart="48.46" from="5672155#0" to="964208970#0"/>
    <trip id="378" depart="48.58" from="5670633#3" to="767683107#0"/>
    <trip id="379" depart="48.71" from="421832647" to="46139040#2"/>
    <trip id="380" depart="48.84" from="439842836#3" to="993797879"/>
    <trip id="381" depart="48.97" from="561084838#3" to="479642043#3"/>
    <trip id="382" depart="49.10" from="46160365#3" to="1027206710#0"/>
    <trip id="383" depart="49.23" from="336534277#0" to="671212509#0"/>
    <trip id="384" depart="49.35" from="413050334#0" to="5673530#0"/>
    <trip id="385" depart="49.48" from="421853965#0" to="-46154337#2"/>
    <trip id="386" depart="49.61" from="483707770#0" to="46139038#0"/>
    <trip id="387" depart="49.74" from="321993367#0" to="5669899#0"/>
    <trip id="388" depart="49.87" from="157012386#0" to="5670275"/>
    <trip id="389" depart="50.00" from="686125782#21" to="46525065#0"/>
    <trip id="390" depart="50.13" from="5670092#20" to="847932330#0"/>
    <trip id="391" depart="50.25" from="589494594#0" to="968393474#0"/>
    <trip id="392" depart="50.38" from="5670106#6" to="420895276"/>
    <trip id="393" depart="50.51" from="5672991#0" to="1159053287#0"/>
    <trip id="394" depart="50.64" from="351638330#0" to="-39956203#2"/>
    <trip id="395" depart="50.77" from="955293894" to="5670012#0"/>
    <trip id="396" depart="50.90" from="1080862161#0" to="799833493#1"/>
    <trip id="397" depart="51.03" from="386972970#0" to="1238990622#0"/>
    <trip id="398" depart="51.15" from="847932925#0" to="1220586384"/>
    <trip id="399" depart="51.28" from="5669866#5" to="993797875#0"/>
    <trip id="400" depart="51.41" from="870681743" to="1049837362#0"/>
    <trip id="401" depart="51.54" from="24264114#0" to="420872177#0"/>
    <trip id="402" depart="51.67" from="584971522#0" to="-1080862168#1"/>
    <trip id="403" depart="51.80" from="46522002#0" to="5670418#3"/>
    <trip id="404" depart="51.93" from="420892275#0" to="388281629#0"/>
    <trip id="405" depart="52.05" from="46419221#0" to="1224480430#0"/>
    <trip id="406" depart="52.18" from="5670578#15" to="195743166#0"/>
    <trip id="407" depart="52.31" from="460067515#0" to="1031408126#0"/>
    <trip id="408" depart="52.44" from="-666752576#2" to="374421069#0"/>
    <trip id="409" depart="52.57" from="1156946157#0" to="525033953#0"/>
    <trip id="410" depart="52.70" from="5670578#15" to="46211831#0"/>
    <trip id="411" depart="52.82" from="-584971532#2" to="492148700#0"/>
    <trip id="412" depart="52.95" from="515879032#0" to="5673309#0"/>
    <trip id="413" depart="53.08" from="542213933#0" to="763121491"/>