<?xml version="1.0" encoding="UTF-8"?>

<!-- generated on 2025-08-03 11:09:54.262520 by randomTrips.py UNKNOWN
<configuration>
    <net-file value="manhattan_small/osm.net.xml"/>
    <output-trip-file value="manhattan_small/random_trips_3600_id10.rou.xml"/>
    <random value="True"/>
    <validate value="True"/>
    <insertion-density value="10.0"/>
</configuration>
-->

<routes xmlns:xsi="http://www.w3.org/2001/XMLSchema-instance" xsi:noNamespaceSchemaLocation="http://sumo.dlr.de/xsd/routes_file.xsd">
    <trip id="0" depart="0.00" from="1271746676#0" to="-1080862168#1"/>
    <trip id="1" depart="0.39" from="1007629839#0" to="852992103#0"/>
    <trip id="2" depart="0.77" from="420901923#0" to="-837696052#1"/>
    <trip id="3" depart="1.16" from="-5670205#1" to="-626221794#1"/>
    <trip id="4" depart="1.54" from="669685948#0" to="497253398#0"/>
    <trip id="5" depart="1.93" from="1186131871" to="46694762#6"/>
    <trip id="6" depart="2.31" from="420357622#0" to="46608946#3"/>
    <trip id="7" depart="2.70" from="195743171#0" to="569345515#0"/>
    <trip id="8" depart="3.08" from="22909152#0" to="-438389786#1"/>
    <trip id="9" depart="3.47" from="46226332" to="845755951#3"/>
    <trip id="10" depart="3.86" from="112116234#4" to="5670106#7"/>
    <trip id="11" depart="4.24" from="-1159051925#1" to="420901673#0"/>
    <trip id="12" depart="4.63" from="195745911#0" to="25199883#6"/>
    <trip id="13" depart="5.01" from="420872193#0" to="154716101#0"/>
    <trip id="14" depart="5.40" from="22897633#6" to="-167922077#2"/>
    <trip id="15" depart="5.78" from="5669962#0" to="380096992#0"/>
    <trip id="16" depart="6.17" from="46538405#0" to="497253399#0"/>
    <trip id="17" depart="6.55" from="968513230#0" to="992164861"/>
    <trip id="18" depart="6.94" from="1037772009#0" to="497154281#8"/>
    <trip id="19" depart="7.33" from="5673461#4" to="5669804#0"/>
    <trip id="20" depart="7.71" from="492148706#3" to="5672871#8"/>
    <trip id="21" depart="8.10" from="511699176#0" to="544812894#0"/>
    <trip id="22" depart="8.48" from="465256868" to="194923807#0"/>
    <trip id="23" depart="8.87" from="597821266#7" to="-454031476#1"/>
    <trip id="24" depart="9.25" from="711924577" to="618990022#16"/>
    <trip id="25" depart="9.64" from="1080864179#0" to="166030811#0"/>
    <trip id="26" depart="10.03" from="584971474#0" to="455501328#0"/>
    <trip id="27" depart="10.41" from="5671457#3" to="630828555#0"/>
    <trip id="28" depart="10.80" from="34079830#0" to="957873160"/>
    <trip id="29" depart="11.18" from="1202586283#2" to="352705238#0"/>
    <trip id="30" depart="11.57" from="46694760#19" to="-5669892#9"/>
    <trip id="31" depart="11.95" from="524610938#0" to="1021949726#0"/>
    <trip id="32" depart="12.34" from="-872052106" to="22941923#0"/>
    <trip id="33" depart="12.72" from="1021068251#0" to="-46431825#6"/>
    <trip id="34" depart="13.11" from="46469727#0" to="420509471#0"/>
    <trip id="35" depart="13.50" from="464683339#3" to="265356028#0"/>
    <trip id="36" depart="13.88" from="5672377#3" to="420888140#0"/>
    <trip id="37" depart="14.27" from="379843699" to="968393476#0"/>
    <trip id="38" depart="14.65" from="397839400#10" to="706833047#0"/>
    <trip id="39" depart="15.04" from="-1159051944#1" to="-5669892#12"/>
    <trip id="40" depart="15.42" from="68668529#0" to="34625464#0"/>
    <trip id="41" depart="15.81" from="524817694#0" to="226041006#0"/>
    <trip id="42" depart="16.19" from="1088327051" to="963551553#11"/>
    <trip id="43" depart="16.58" from="518451327#3" to="1080319439#0"/>
    <trip id="44" depart="16.97" from="1211049194#0" to="-195743222#1"/>
    <trip id="45" depart="17.35" from="1032481037#0" to="5671668#4"/>
    <trip id="46" depart="17.74" from="68668553#0" to="195743554#17"/>
    <trip id="47" depart="18.12" from="1128388463#3" to="1062029895#0"/>
    <trip id="48" depart="18.51" from="1230946412#0" to="588314388"/>
    <trip id="49" depart="18.89" from="-420890077#1" to="127691872#6"/>
    <trip id="50" depart="19.28" from="1030119891#0" to="5672760#0"/>
    <trip id="51" depart="19.66" from="46492034-AddedOffRampEdge" to="-5672190#4"/>
    <trip id="52" depart="20.05" from="5671197#4" to="46694762#3"/>
    <trip id="53" depart="20.44" from="-5670738#4" to="1272152371"/>
    <trip id="54" depart="20.82" from="346951422#0" to="496982787#0"/>
    <trip id="55" depart="21.21" from="-742007049" to="1032453060#0"/>
    <trip id="56" depart="21.59" from="451954039#5" to="5671307#7"/>
    <trip id="57" depart="21.98" from="46481095#9" to="420894368#0"/>
    <trip id="58" depart="22.36" from="1021047632#0" to="320584278#8"/>
    <trip id="59" depart="22.75" from="5672973#0" to="5673078#0"/>
    <trip id="60" depart="23.14" from="477151468#0" to="122660459"/>
    <trip id="61" depart="23.52" from="496978219#0" to="1021949728#0"/>
    <trip id="62" depart="23.91" from="413056164#0" to="579565234#0"/>
    <trip id="63" depart="24.29" from="5671261#0" to="413050335#3"/>
    <trip id="64" depart="24.68" from="890023178#0" to="1046745000#0"/>
    <trip id="65" depart="25.06" from="32939007" to="194923799"/>
    <trip id="66" depart="25.45" from="799813242#2" to="196116991#0"/>
    <trip id="67" depart="25.83" from="1067449180#0" to="480112481#0"/>
    <trip id="68" depart="26.22" from="5669206" to="46201665#0"/>
    <trip id="69" depart="26.61" from="743358443#3" to="1021949718#0"/>
    <trip id="70" depart="26.99" from="481403099#3" to="1201651432#0"/>
    <trip id="71" depart="27.38" from="465098276#0" to="5669205#0"/>
    <trip id="72" depart="27.76" from="-68674958#4" to="1254240540#0"/>
    <trip id="73" depart="28.15" from="1080982427#0" to="473884145#0"/>
    <trip id="74" depart="28.53" from="681064391" to="1303171092#0"/>
    <trip id="75" depart="28.92" from="954520389#0" to="195743185#3"/>
    <trip id="76" depart="29.30" from="1068493214#2" to="5670084#6"/>
    <trip id="77" depart="29.69" from="46538335#0" to="409716177#0"/>
    <trip id="78" depart="30.08" from="616745173#0" to="420892271#0"/>
    <trip id="79" depart="30.46" from="5671654#0" to="5671314#7"/>
    <trip id="80" depart="30.85" from="118714476#0" to="5669881#0"/>
    <trip id="81" depart="31.23" from="5673530#0" to="5671628#10"/>
    <trip id="82" depart="31.62" from="-485755181#1" to="433124968#8"/>
    <trip id="83" depart="32.00" from="1188730002#9" to="320584278#18"/>
    <trip id="84" depart="32.39" from="-496990645" to="5669669#4"/>
    <trip id="85" depart="32.77" from="438385431#6" to="584971459#0"/>
    <trip id="86" depart="33.16" from="388240124#13" to="890023178#0"/>
    <trip id="87" depart="33.55" from="767398933#0" to="32958722"/>
    <trip id="88" depart="33.93" from="958268977#0" to="-276670360#3"/>
    <trip id="89" depart="34.32" from="1237429425#0" to="433124968#5"/>
    <trip id="90" depart="34.70" from="954878305#0" to="955301425#6"/>
    <trip id="91" depart="35.09" from="806463252#0" to="5670814#0"/>
    <trip id="92" depart="35.47" from="336534277#0" to="46171878#4"/>
    <trip id="93" depart="35.86" from="46694757#3" to="433394647#0"/>
    <trip id="94" depart="36.24" from="420352244#0" to="195743182#6"/>
    <trip id="95" depart="36.63" from="1080185970#0" to="1157664114#0"/>
    <trip id="96" depart="37.02" from="460657165#0" to="46351263#0"/>
    <trip id="97" depart="37.40" from="496978218#0" to="5673018#0"/>
    <trip id="98" depart="37.79" from="420872181#0" to="22909247"/>
    <trip id="99" depart="38.17" from="5672710#1" to="987645701"/>
    <trip id="100" depart="38.56" from="813970415#0" to="895398385#0"/>
    <trip id="101" depart="38.94" from="1068493214#2" to="-46538396#1"/>
    <trip id="102" depart="39.33" from="1067728688#0" to="68674958#0"/>
    <trip id="103" depart="39.72" from="125479721#0" to="1080964114#0"/>
    <trip id="104" depart="40.10" from="5671543" to="195743210"/>
    <trip id="105" depart="40.49" from="814840328#0" to="516664207#0"/>
    <trip id="106" depart="40.87" from="194923763#0" to="1080862177#0"/>
    <trip id="107" depart="41.26" from="-46525029#1" to="-480682391#1"/>
    <trip id="108" depart="41.64" from="46525065#7" to="988994184"/>
    <trip id="109" depart="42.03" from="388240124#13" to="433124968#5"/>
    <trip id="110" depart="42.41" from="1049837953" to="464683341#0"/>
    <trip id="111" depart="42.80" from="972926362#0" to="808190584#3"/>
    <trip id="112" depart="43.19" from="480682391#0" to="968388395#0"/>
    <trip id="113" depart="43.57" from="520532096#0" to="727644278#3"/>
    <trip id="114" depart="43.96" from="234489459" to="584850103#0"/>
    <trip id="115" depart="44.34" from="32936385#0" to="1106482765#0"/>
    <trip id="116" depart="44.73" from="771759767" to="5671056#3"/>
    <trip id="117" depart="45.11" from="-420894375#1" to="587038101#0"/>
    <trip id="118" depart="45.50" from="-5671307#8" to="1036099866"/>
    <trip id="119" depart="45.88" from="1049854215#0" to="5670574#0"/>
    <trip id="120" depart="46.27" from="1271523176#0" to="46165819#0"/>
    <trip id="121" depart="46.66" from="46482602#2" to="-25166891#2"/>
    <trip id="122" depart="47.04" from="256902831#0" to="5672176#3"/>
    <trip id="123" depart="47.43" from="356140743#0" to="420904617#0"/>
    <trip id="124" depart="47.81" from="-571651963#1" to="5669226#0"/>
    <trip id="125" depart="48.20" from="-139919706#1" to="420894363#0"/>
    <trip id="126" depart="48.58" from="5670462#0" to="763121491"/>
    <trip id="127" depart="48.97" from="46482592#0" to="5673102#7"/>
    <trip id="128" depart="49.35" from="5672925#0" to="458180200#0"/>
    <trip id="129" depart="49.74" from="496982787#0" to="209462186#0"/>
    <trip id="130" depart="50.13" from="420530113#0" to="125525171#0"/>
    <trip id="131" depart="50.51" from="813956618#0" to="46694751#0"/>
    <trip id="132" depart="50.90" from="-616745176#2" to="542096279#0"/>
    <trip id="133" depart="51.28" from="970750137#0" to="-46520921#8"/>
    <trip id="134" depart="51.67" from="-421824309#2" to="-46332295#9"/>
    <trip id="135" depart="52.05" from="-1007837780#1" to="450807242#0"/>
    <trip id="136" depart="52.44" from="-584971432#3" to="-46111607#33"/>
    <trip id="137" depart="52.82" from="-5670087#2" to="32939007"/>
    <trip id="138" depart="53.21" from="5670818#7" to="1238342551#0"/>
    <trip id="139" depart="53.60" from="157012386#10" to="5669875#0"/>
    <trip id="140" depart="53.98" from="46349386#0" to="420352249#0"/>
    <trip id="141" depart="54.37" from="1024458692#0" to="518451327#3"/>
    <trip id="142" depart="54.75" from="1057527156#0" to="5669860#0"/>
    <trip id="143" depart="55.14" from="36185330#0" to="1027130510#0"/>
    <trip id="144" depart="55.52" from="439801907#0" to="5669857#0"/>
    <trip id="145" depart="55.91" from="536917119#0" to="226041030#0"/>
    <trip id="146" depart="56.30" from="421851202#0" to="587038051#0"/>
    <trip id="147" depart="56.68" from="5669896#0" to="-46348787#4"/>
    <trip id="148" depart="57.07" from="420872212#0" to="954878305#0"/>
    <trip id="149" depart="57.45" from="-993795186#2" to="46139034#5"/>
    <trip id="150" depart="57.84" from="195743339#12" to="5670029#0"/>
    <trip id="151" depart="58.22" from="46469726#0" to="448686048#0"/>
    <trip id="152" depart="58.61" from="1224490989#2" to="-1081824061#3"/>
    <trip id="153" depart="58.99" from="-5670254#5" to="847921887#0"/>
    <trip id="154" depart="59.38" from="-420904658#2" to="988977545#10"/>
    <trip id="155" depart="59.77" from="5671475#0" to="465098290#0"/>
    <trip id="156" depart="60.15" from="195743196" to="167922077#0"/>
    <trip id="157" depart="60.54" from="5671442#0" to="44225576#0"/>
    <trip id="158" depart="60.92" from="46224832#3" to="1188730002#9"/>
    <trip id="159" depart="61.31" from="195743339#0" to="169267544"/>
    <trip id="160" depart="61.69" from="5668999#3" to="1189989592#0"/>
    <trip id="161" depart="62.08" from="439842831#3" to="5672159#0"/>
    <trip id="162" depart="62.46" from="5673210#2" to="5670092#32"/>
    <trip id="163" depart="62.85" from="36807165" to="464522037#15"/>
    <trip id="164" depart="63.24" from="439933928#0" to="114654203#0"/>
    <trip id="165" depart="63.62" from="852992101#0" to="-169267538#1"/>
    <trip id="166" depart="64.01" from="-25166891#2" to="5671717#0"/>
    <trip id="167" depart="64.39" from="770524299#3" to="5670034#0"/>
    <trip id="168" depart="64.78" from="1136699157" to="458180191#0"/>
    <trip id="169" depart="65.16" from="1123883123#3" to="-981500819#1"/>
    <trip id="170" depart="65.55" from="955261511#0" to="1080864177"/>
    <trip id="171" depart="65.93" from="-5670709#1" to="799813239#0"/>
    <trip id="172" depart="66.32" from="-1080982437#1" to="500717399#0"/>
    <trip id="173" depart="66.71" from="5671668#2" to="955301426#0"/>
    <trip id="174" depart="67.09" from="533472943#0" to="705223737#0"/>
    <trip id="175" depart="67.48" from="799480720#2" to="467222812#0"/>
    <trip id="176" depart="67.86" from="492148706#3" to="806463252#0"/>
    <trip id="177" depart="68.25" from="480682392#0" to="5671354#0"/>
    <trip id="178" depart="68.63" from="1106470993#0" to="808190584#0"/>
    <trip id="179" depart="69.02" from="-46211851#1" to="5671202#0"/>
    <trip id="180" depart="69.41" from="1049852135" to="497258108#3"/>
    <trip id="181" depart="69.79" from="5671475#14" to="46139023#0"/>
    <trip id="182" depart="70.18" from="-837696054#1" to="965833823#0"/>
    <trip id="183" depart="70.56" from="584850104#3" to="525656852#0"/>
    <trip id="184" depart="70.95" from="195922666#0" to="474304540#2"/>
    <trip id="185" depart="71.33" from="226193929#2" to="5671928#0"/>
    <trip id="186" depart="71.72" from="986615542#0" to="1238347039#0"/>
    <trip id="187" depart="72.10" from="-194923778#1" to="195743554#4"/>
    <trip id="188" depart="72.49" from="195743193#5" to="196117028#3"/>
    <trip id="189" depart="72.88" from="380145816#0" to="968521513#0"/>
    <trip id="190" depart="73.26" from="686125782#18" to="46116326#0"/>
    <trip id="191" depart="73.65" from="-496990645" to="993797888#0"/>
    <trip id="192" depart="74.03" from="46482602#0" to="464515890#0"/>
    <trip id="193" depart="74.42" from="-1080982437#1" to="945167874#0"/>
    <trip id="194" depart="74.80" from="812936280#9" to="196116978#0"/>
    <trip id="195" depart="75.19" from="1228693942#0" to="835694479#0"/>
    <trip id="196" depart="75.57" from="22904053#0" to="-542096278#3"/>
    <trip id="197" depart="75.96" from="5673515#0" to="46334663#0"/>
    <trip id="198" depart="76.35" from="388240124#13" to="-226041016#2"/>
    <trip id="199" depart="76.73" from="739911956#0" to="161387757#0"/>
    <trip id="200" depart="77.12" from="46154327#3" to="480112476#2"/>
    <trip id="201" depart="77.50" from="1231588528#1" to="5672713#0"/>
    <trip id="202" depart="77.89" from="441405435#0" to="-560788343#2"/>
    <trip id="203" depart="78.27" from="1202586280#0" to="1088320656#0"/>
    <trip id="204" depart="78.66" from="32939187#0" to="587061846#3"/>
    <trip id="205" depart="79.04" from="560788342#4" to="584971513"/>
    <trip id="206" depart="79.43" from="-1080978584#3" to="68674962#68"/>
    <trip id="207" depart="79.82" from="446864091#13" to="439842817"/>
    <trip id="208" depart="80.20" from="32936733" to="1024556678#0"/>
    <trip id="209" depart="80.59" from="-5669709#2" to="1024556682#0"/>
    <trip id="210" depart="80.97" from="46154327#0" to="36185649#0"/>
    <trip id="211" depart="81.36" from="420904659#0" to="541346246#2"/>
    <trip id="212" depart="81.74" from="988994184" to="-421851201#2"/>
    <trip id="213" depart="82.13" from="32937066#0" to="22927462#6"/>
    <trip id="214" depart="82.51" from="963567032#0" to="46431823#3"/>
    <trip id="215" depart="82.90" from="812949648#0" to="195743555#0"/>
    <trip id="216" depart="83.29" from="-220544055" to="5670574#0"/>
    <trip id="217" depart="83.67" from="-1080871810" to="1140716171#0"/>
    <trip id="218" depart="84.06" from="5671084#0" to="46469721"/>
    <trip id="219" depart="84.44" from="1151033516#0" to="22927462#11"/>
    <trip id="220" depart="84.83" from="458106346#4" to="742007049"/>
    <trip id="221" depart="85.21" from="-1231600246" to="494221658#0"/>
    <trip id="222" depart="85.60" from="556311124#3" to="1090370031"/>
    <trip id="223" depart="85.99" from="1237364397#0" to="196117075#3"/>
    <trip id="224" depart="86.37" from="5670092#7" to="669685948#0"/>
    <trip id="225" depart="86.76" from="5672434" to="451954039#0"/>
    <trip id="226" depart="87.14" from="46443656#20" to="496977101#4"/>
    <trip id="227" depart="87.53" from="1038772917#3" to="-993793442#1"/>
    <trip id="228" depart="87.91" from="5670740" to="438367286#0"/>
    <trip id="229" depart="88.30" from="75311776#0" to="955261513#0"/>
    <trip id="230" depart="88.68" from="1025731514#0" to="1031408125#0"/>
    <trip id="231" depart="89.07" from="5669966#0" to="-1080862170"/>
    <trip id="232" depart="89.46" from="5671349#0" to="1024556685#0"/>
    <trip id="233" depart="89.84" from="955134530#0" to="1157765268#0"/>
    <trip id="234" depart="90.23" from="46481754#0" to="194923812#0"/>
    <trip id="235" depart="90.61" from="1157664114#0" to="46160365#0"/>
    <trip id="236" depart="91.00" from="195743208#0" to="5672315#7"/>
    <trip id="237" depart="91.38" from="-1080864180#1" to="496986997#0"/>
    <trip id="238" depart="91.77" from="112116235#0" to="-655255187#10"/>
    <trip id="239" depart="92.15" from="-1080862162#1" to="968394454#0"/>
    <trip id="240" depart="92.54" from="686125782#39" to="506680905"/>
    <trip id="241" depart="92.93" from="852992111#0" to="939122872"/>
    <trip id="242" depart="93.31" from="-95181769#1" to="1135342275#0"/>
    <trip id="243" depart="93.70" from="464683323#0" to="1037772578#0"/>
    <trip id="244" depart="94.08" from="661227257#0" to="-560788342#3"/>
    <trip id="245" depart="94.47" from="195743216#0" to="-46201679#2"/>
    <trip id="246" depart="94.85" from="747908053" to="5671663#0"/>
    <trip id="247" depart="95.24" from="428569356#0" to="5671203#0"/>
    <trip id="248" depart="95.62" from="46351263#0" to="686125790#7"/>
    <trip id="249" depart="96.01" from="456308943#0" to="1214511871"/>
    <trip id="250" depart="96.40" from="988977545#0" to="1189567313#8"/>
    <trip id="251" depart="96.78" from="-194923760#1" to="767398932#0"/>
    <trip id="252" depart="97.17" from="1031408127#0" to="5673038#0"/>
    <trip id="253" depart="97.55" from="458180193#3" to="1081824061#0"/>
    <trip id="254" depart="97.94" from="1088325198" to="989265270#0"/>
    <trip id="255" depart="98.32" from="1088327048#0" to="1201651435#4"/>
    <trip id="256" depart="98.71" from="-420894362#1" to="5671429#3"/>
    <trip id="257" depart="99.09" from="526839039#3" to="196117051#0"/>
    <trip id="258" depart="99.48" from="954520390#0" to="1080864179#0"/>
    <trip id="259" depart="99.87" from="705223734#0" to="946653471#0"/>
    <trip id="260" depart="100.25" from="46520833#3" to="440947098#0"/>
    <trip id="261" depart="100.64" from="511699179#0" to="955293895#2"/>
    <trip id="262" depart="101.02" from="46111607#34" to="-226040986#1"/>
    <trip id="263" depart="101.41" from="221157083#0" to="700951339#0"/>
    <trip id="264" depart="101.79" from="1080982438#0" to="1151033517#0"/>
    <trip id="265" depart="102.18" from="1127576696#0" to="5672524#19"/>
    <trip id="266" depart="102.57" from="-1271523174#4" to="5669101#0"/>
    <trip id="267" depart="102.95" from="1135342273#0" to="-226041016#2"/>
    <trip id="268" depart="103.34" from="-46201655#1" to="127693200#0"/>
    <trip id="269" depart="103.72" from="-880256646#3" to="226041033"/>
    <trip id="270" depart="104.11" from="1080978581" to="837450654#0"/>
    <trip id="271" depart="104.49" from="1089573084#0" to="46469722#0"/>
    <trip id="272" depart="104.88" from="496986803#0" to="-847920890#1"/>
    <trip id="273" depart="105.26" from="5672487#0" to="968393466#0"/>
    <trip id="274" depart="105.65" from="421854004#0" to="22927287#0"/>
    <trip id="275" depart="106.04" from="542258060#0" to="630828555#0"/>
    <trip id="276" depart="106.42" from="584971531#0" to="196117001#0"/>
    <trip id="277" depart="106.81" from="-195743193#1" to="706833046#0"/>
    <trip id="278" depart="107.19" from="421825692#9" to="-1125256558#2"/>
    <trip id="279" depart="107.58" from="499172074#9" to="630828582#0"/>
    <trip id="280" depart="107.96" from="-34769546#1" to="46154287"/>
    <trip id="281" depart="108.35" from="118400728#0" to="46332307#0"/>
    <trip id="282" depart="108.73" from="954659191#0" to="-945523294#2"/>
    <trip id="283" depart="109.12" from="992141077#12" to="1106469543#0"/>
    <trip id="284" depart="109.51" from="68668519#0" to="439842838#0"/>
    <trip id="285" depart="109.89" from="46224832#0" to="1059309735"/>
    <trip id="286" depart="110.28" from="22904053#0" to="-46694759#2"/>
    <trip id="287" depart="110.66" from="511699183#0" to="560788342#0"/>
    <trip id="288" depart="111.05" from="404253364#39" to="46608946#15"/>
    <trip id="289" depart="111.43" from="1050175622#0" to="837696054#0"/>
    <trip id="290" depart="111.82" from="36806659" to="1088320652#0"/>
    <trip id="291" depart="112.20" from="195743179#0" to="46431825#0"/>
    <trip id="292" depart="112.59" from="936537012" to="1032043567#0"/>
    <trip id="293" depart="112.98" from="196117028#3" to="-46529274#3"/>
    <trip id="294" depart="113.36" from="767398932#0" to="808190576#0"/>
    <trip id="295" depart="113.75" from="420899372#0" to="-1088325195#1"/>
    <trip id="296" depart="114.13" from="-196117014#1" to="169267536"/>
    <trip id="297" depart="114.52" from="993797885#0" to="5669002#0"/>
    <trip id="298" depart="114.90" from="1136391283#0" to="451905565#0"/>
    <trip id="299" depart="115.29" from="-194923778#1" to="654560917#0"/>
    <trip id="300" depart="115.68" from="5671084#0" to="5670488#0"/>
    <trip id="301" depart="116.06" from="460604907#0" to="843553759#0"/>
    <trip id="302" depart="116.45" from="5672142#2" to="485556246"/>
    <trip id="303" depart="116.83" from="986615541#0" to="968737543#3"/>
    <trip id="304" depart="117.22" from="813970415#0" to="458166897#21"/>
    <trip id="305" depart="117.60" from="-611258687#1" to="1038780408#0"/>
    <trip id="306" depart="117.99" from="-554083352" to="-5672060#1"/>
    <trip id="307" depart="118.37" from="-804521765#2" to="46154296#2"/>
    <trip id="308" depart="118.76" from="587061856#18" to="1188730002#6"/>
    <trip id="309" depart="119.15" from="852992101#0" to="806341217#0"/>
    <trip id="310" depart="119.53" from="584971448#0" to="986157727"/>
    <trip id="311" depart="119.92" from="25199870#7" to="36801165#0"/>
    <trip id="312" depart="120.30" from="5671296#0" to="1032031974#0"/>
    <trip id="313" depart="120.69" from="1117942067#0" to="195743342#6"/>
    <trip id="314" depart="121.07" from="195743180#0" to="273895449#0"/>
    <trip id="315" depart="121.46" from="479642033#4" to="5671442#0"/>
    <trip id="316" depart="121.84" from="5669841#0" to="46492034-AddedOffRampEdge"/>
    <trip id="317" depart="122.23" from="-5670694#5" to="1057563582"/>
    <trip id="318" depart="122.62" from="458180199#10" to="978320981#0"/>
    <trip id="319" depart="123.00" from="1088320655#0" to="1124499625#0"/>
    <trip id="320" depart="123.39" from="5670770#0" to="5669190"/>
    <trip id="321" depart="123.77" from="5670814#6" to="460585328#12"/>
    <trip id="322" depart="124.16" from="1187622116" to="686125780#0"/>
    <trip id="323" depart="124.54" from="420809439" to="1080964112"/>
    <trip id="324" depart="124.93" from="464516471#3" to="39662324#0"/>
    <trip id="325" depart="125.31" from="1030283845" to="5670785#0"/>
    <trip id="326" depart="125.70" from="1087744935#3" to="5670514#3"/>
    <trip id="327" depart="126.09" from="46481738#0" to="5670877#0"/>
    <trip id="328" depart="126.47" from="451954041#0" to="-263088941#1"/>
    <trip id="329" depart="126.86" from="812949647#10" to="1027181004#0"/>
    <trip id="330" depart="127.24" from="579565231#0" to="1128358854"/>
    <trip id="331" depart="127.63" from="-525729008#5" to="5670707#11"/>
    <trip id="332" depart="128.01" from="-1238431029#1" to="5670814#0"/>
    <trip id="333" depart="128.40" from="1059459147" to="5670366#0"/>
    <trip id="334" depart="128.78" from="587061856#0" to="525656852#0"/>
    <trip id="335" depart="129.17" from="993793442#0" to="5671008#0"/>
    <trip id="336" depart="129.56" from="420598333#0" to="1183958481#0"/>
    <trip id="337" depart="129.94" from="-452339695#1" to="157012386#13"/>
    <trip id="338" depart="130.33" from="5673372#0" to="5671083#0"/>
    <trip id="339" depart="130.71" from="1149178606" to="420892271#0"/>
    <trip id="340" depart="131.10" from="480112484#0" to="388167519#0"/>
    <trip id="341" depart="131.48" from="5670633#3" to="809013918#0"/>
    <trip id="342" depart="131.87" from="845781114#10" to="-252227354#1"/>
    <trip id="343" depart="132.26" from="194923810#6" to="194923808#0"/>
    <trip id="344" depart="132.64" from="1106482769#0" to="5669875#0"/>
    <trip id="345" depart="133.03" from="420905130#0" to="-439801907#11"/>
    <trip id="346" depart="133.41" from="195743213#0" to="-1274636982#8"/>
    <trip id="347" depart="133.80" from="1188730002#6" to="895398384#0"/>
    <trip id="348" depart="134.18" from="1049837953" to="-5670205#1"/>
    <trip id="349" depart="134.57" from="-420522443#4" to="727702633#0"/>
    <trip id="350" depart="134.95" from="384178816#0" to="1080862171#0"/>
    <trip id="351" depart="135.34" from="-560788343#2" to="809013918#0"/>
    <trip id="352" depart="135.73" from="340825593-AddedOnRampEdge" to="196117028#6"/>
    <trip id="353" depart="136.11" from="420904658#0" to="308322447#0"/>
    <trip id="354" depart="136.50" from="420358898#3" to="46694757#6"/>
    <trip id="355" depart="136.88" from="954520389#0" to="-25167210#7"/>
    <trip id="356" depart="137.27" from="654756710#0" to="222299275#0"/>
    <trip id="357" depart="137.65" from="397839400#0" to="542215781#5"/>
    <trip id="358" depart="138.04" from="812949648#0" to="-22904149#1"/>
    <trip id="359" depart="138.42" from="611258687#0" to="46431825#4"/>
    <trip id="360" depart="138.81" from="1052799032#0" to="1214511871"/>
    <trip id="361" depart="139.20" from="1184480985#0" to="607091411#9"/>
    <trip id="362" depart="139.58" from="68668556#0" to="413054857#8"/>
    <trip id="363" depart="139.97" from="1042964168#0" to="630828584#0"/>
    <trip id="364" depart="140.35" from="453143511#1" to="226041012#3"/>
    <trip id="365" depart="140.74" from="497154281#0" to="845781114#0"/>
    <trip id="366" depart="141.12" from="420892269#0" to="801764674#0"/>
    <trip id="367" depart="141.51" from="1034703028#0" to="1211608943#0"/>
    <trip id="368" depart="141.89" from="895398381#0" to="-194923762#1"/>
    <trip id="369" depart="142.28" from="-420522443#4" to="32934351#0"/>
    <trip id="370" depart="142.67" from="-413212450#1" to="420809420#5"/>
    <trip id="371" depart="143.05" from="1201643836#0" to="420890023#0"/>
    <trip id="372" depart="143.44" from="497769953#0" to="694312424#0"/>
    <trip id="373" depart="143.82" from="5669892#4" to="124814435#3"/>
    <trip id="374" depart="144.21" from="438900013#0" to="1198594026#0"/>
    <trip id="375" depart="144.59" from="-46160244#2" to="505317789#0"/>
    <trip id="376" depart="144.98" from="46211831#0" to="825236402"/>
    <trip id="377" depart="145.37" from="5669882#3" to="5670079#0"/>
    <trip id="378" depart="145.75" from="5670490#0" to="1220414685#0"/>
    <trip id="379" depart="146.14" from="46443624" to="1088327053"/>
    <trip id="380" depart="146.52" from="968394454#4" to="380145816#0"/>
    <trip id="381" depart="146.91" from="5670172#0" to="1021949726#0"/>
    <trip id="382" depart="147.29" from="-1088325194" to="1030123278#0"/>
    <trip id="383" depart="147.68" from="-194923791#1" to="420908136#0"/>
    <trip id="384" depart="148.06" from="492148704#3" to="464683344#0"/>
    <trip id="385" depart="148.45" from="5670932#0" to="525729009#0"/>
    <trip id="386" depart="148.84" from="68674962#65" to="5671460#0"/>
    <trip id="387" depart="149.22" from="542257009#0" to="671208356#0"/>
    <trip id="388" depart="149.61" from="421852033" to="5672187#0"/>
    <trip id="389" depart="149.99" from="630828583#0" to="837696048#0"/>
    <trip id="390" depart="150.38" from="1224480429#0" to="1238156664#0"/>
    <trip id="391" depart="150.76" from="420356171#3" to="-496977101#6"/>
    <trip id="392" depart="151.15" from="1224490987#0" to="730300445#6"/>
    <trip id="393" depart="151.53" from="-195743195#2" to="474635905#0"/>
    <trip id="394" depart="151.92" from="-400334766" to="46610725#6"/>
    <trip id="395" depart="152.31" from="978675658#3" to="413045201#0"/>
    <trip id="396" depart="152.69" from="464683318#0" to="46154285#0"/>
    <trip id="397" depart="153.08" from="458180191#3" to="-195743213#1"/>
    <trip id="398" depart="153.46" from="5671668#7" to="46154324#0"/>
    <trip id="399" depart="153.85" from="1150636496#0" to="397795463#0"/>
    <trip id="400" depart="154.23" from="5672036#3" to="1021949730#0"/>
    <trip id="401" depart="154.62" from="451808492#0" to="5669892#7"/>
    <trip id="402" depart="155.00" from="587061858#6" to="32934362#0"/>
    <trip id="403" depart="155.39" from="845781114#19" to="110489638#0"/>
    <trip id="404" depart="155.78" from="5672524#7" to="5670092#30"/>
    <trip id="405" depart="156.16" from="5671603#0" to="505582406#0"/>
    <trip id="406" depart="156.55" from="379843704" to="46349386#0"/>
    <trip id="407" depart="156.93" from="1049854215#0" to="195743166#7"/>
    <trip id="408" depart="157.32" from="5671457#0" to="682359868"/>
    <trip id="409" depart="157.70" from="420496091#3" to="962612852"/>
    <trip id="410" depart="158.09" from="5673380#0" to="706833046#6"/>