<?xml version="1.0" encoding="UTF-8"?>

<!-- generated on 2025-08-03 11:10:23.736868 by randomTrips.py UNKNOWN
<configuration>
    <net-file value="manhattan_small/osm.net.xml"/>
    <output-trip-file value="manhattan_small/random_trips_3600_id20.rou.xml"/>
    <random value="True"/>
    <validate value="True"/>
    <insertion-density value="20.0"/>
</configuration>
-->

<routes xmlns:xsi="http://www.w3.org/2001/XMLSchema-instance" xsi:noNamespaceSchemaLocation="http://sumo.dlr.de/xsd/routes_file.xsd">
    <trip id="0" depart="0.00" from="22941930#1" to="511699178#0"/>
    <trip id="1" depart="0.19" from="1151034558#2" to="1106469542#3"/>
    <trip id="2" depart="0.39" from="5669881#6" to="5671354#3"/>
    <trip id="3" depart="0.58" from="607091411#12" to="226041013#0"/>
    <trip id="4" depart="0.77" from="1080862180#0" to="1266830886#0"/>
    <trip id="5" depart="0.96" from="1080864178" to="944692442#0"/>
    <trip id="6" depart="1.16" from="-837696048#1" to="-5670087#2"/>
    <trip id="7" depart="1.35" from="463034243#0" to="-978675659"/>
    <trip id="8" depart="1.54" from="5670740" to="-837696056#1"/>
    <trip id="9" depart="1.74" from="464515614#3" to="955214801"/>
    <trip id="10" depart="1.93" from="1266830887#0" to="895398383#0"/>
    <trip id="11" depart="2.12" from="-5670738#4" to="460604907#0"/>
    <trip id="12" depart="2.31" from="226193928#0" to="1052631409#0"/>
    <trip id="13" depart="2.51" from="505600307#0" to="25163419#0"/>
    <trip id="14" depart="2.70" from="465098295#0" to="46419222#1"/>
    <trip id="15" depart="2.89" from="439842754#0" to="1038939784#0"/>
    <trip id="16" depart="3.08" from="5672550#0" to="1038772917#3"/>
    <trip id="17" depart="3.28" from="618990022#20" to="1202638283#0"/>
    <trip id="18" depart="3.47" from="1080964111" to="5670820#3"/>
    <trip id="19" depart="3.66" from="46524947#0" to="465098290#0"/>
    <trip id="20" depart="3.86" from="125479721#0" to="458166897#21"/>
    <trip id="21" depart="4.05" from="847931436#3" to="-46332295#6"/>
    <trip id="22" depart="4.24" from="46201651" to="1254245275#2"/>
    <trip id="23" depart="4.43" from="452322756#0" to="196116975#0"/>
    <trip id="24" depart="4.63" from="587061858#12" to="1021949732#0"/>
    <trip id="25" depart="4.82" from="194923802#2" to="1224480434#3"/>
    <trip id="26" depart="5.01" from="5670694#3" to="-42786502#8"/>
    <trip id="27" depart="5.21" from="36185330#0" to="991939499#2"/>
    <trip id="28" depart="5.40" from="22927462#6" to="1088325196#0"/>
    <trip id="29" depart="5.59" from="884400293#0" to="420809443#0"/>
    <trip id="30" depart="5.78" from="-806341217#2" to="5672524#13"/>
    <trip id="31" depart="5.98" from="420356169#0" to="-991205021#2"/>
    <trip id="32" depart="6.17" from="194923776#0" to="127691871#0"/>
    <trip id="33" depart="6.36" from="814259709#0" to="46139046#1"/>
    <trip id="34" depart="6.55" from="226041025#0" to="439842754#0"/>
    <trip id="35" depart="6.75" from="5673052#0" to="1050175622#0"/>
    <trip id="36" depart="6.94" from="420598335#0" to="710571387#0"/>
    <trip id="37" depart="7.13" from="1272153400#0" to="1037772010#0"/>
    <trip id="38" depart="7.33" from="988984232" to="946653471#0"/>
    <trip id="39" depart="7.52" from="1156469033#0" to="1231588528#0"/>
    <trip id="40" depart="7.71" from="1037772009#0" to="587038081#0"/>
    <trip id="41" depart="7.90" from="5669002#0" to="770524299#0"/>
    <trip id="42" depart="8.10" from="420809420#9" to="630828554#0"/>
    <trip id="43" depart="8.29" from="388696206#0" to="458177130#0"/>
    <trip id="44" depart="8.48" from="848021604#0" to="36185330#0"/>
    <trip id="45" depart="8.68" from="954659191#0" to="1266830893#0"/>
    <trip id="46" depart="8.87" from="46348768#0" to="23048548"/>
    <trip id="47" depart="9.06" from="46520833#0" to="654560920"/>
    <trip id="48" depart="9.25" from="1123877140#0" to="157012398#3"/>
    <trip id="49" depart="9.45" from="988984232" to="1151033516#0"/>
    <trip id="50" depart="9.64" from="1080862170" to="-420904621#1"/>
    <trip id="51" depart="9.83" from="36271338#3" to="5669860#0"/>
    <trip id="52" depart="10.03" from="5669938#3" to="717625448#0"/>
    <trip id="53" depart="10.22" from="743358443#0" to="169381960#0"/>
    <trip id="54" depart="10.41" from="357946354#6" to="808473896#0"/>
    <trip id="55" depart="10.60" from="1080864177" to="1021949729#0"/>
    <trip id="56" depart="10.80" from="-1133806010#2" to="-196117075#6"/>
    <trip id="57" depart="10.99" from="458106347#0" to="46211838#0"/>
    <trip id="58" depart="11.18" from="991939499#0" to="5673035#0"/>
    <trip id="59" depart="11.37" from="420888152" to="452322756#4"/>
    <trip id="60" depart="11.57" from="154716101#3" to="46334602#1"/>
    <trip id="61" depart="11.76" from="68674961#6" to="5673533"/>
    <trip id="62" depart="11.95" from="-5670709#1" to="195743215#0"/>
    <trip id="63" depart="12.15" from="25167444" to="-46111607#33"/>
    <trip id="64" depart="12.34" from="-36271338#9" to="686125790#0"/>
    <trip id="65" depart="12.53" from="420809417#2" to="194923761#1"/>
    <trip id="66" depart="12.72" from="834238142#0" to="5670029#18"/>
    <trip id="67" depart="12.92" from="156994961#0" to="1061979013#0"/>
    <trip id="68" depart="13.11" from="46526965#0" to="5673622#0"/>
    <trip id="69" depart="13.30" from="560788342#4" to="460589632#0"/>
    <trip id="70" depart="13.50" from="939444709" to="46351263#0"/>
    <trip id="71" depart="13.69" from="118714476#4" to="-169267538#1"/>
    <trip id="72" depart="13.88" from="675967321#0" to="-5672389#1"/>
    <trip id="73" depart="14.07" from="1029629817#0" to="989390266"/>
    <trip id="74" depart="14.27" from="420355080#0" to="1031408121#0"/>
    <trip id="75" depart="14.46" from="5669841#4" to="5670079#0"/>
    <trip id="76" depart="14.65" from="196117001#0" to="895348610#2"/>
    <trip id="77" depart="14.84" from="1049920718#0" to="466956276#0"/>
    <trip id="78" depart="15.04" from="195743217#0" to="1136699159#0"/>
    <trip id="79" depart="15.23" from="118400726#0" to="846046868#0"/>
    <trip id="80" depart="15.42" from="992144532#0" to="837696055#0"/>
    <trip id="81" depart="15.62" from="5669206" to="196117042#3"/>
    <trip id="82" depart="15.81" from="68325062#0" to="988956475"/>
    <trip id="83" depart="16.00" from="421853968#0" to="68674962#110"/>
    <trip id="84" depart="16.19" from="1050255675#0" to="25199402#6"/>
    <trip id="85" depart="16.39" from="1106482768#0" to="194923786#0"/>
    <trip id="86" depart="16.58" from="852992099#0" to="256902825#0"/>
    <trip id="87" depart="16.77" from="993368838#0" to="968393479#20"/>
    <trip id="88" depart="16.97" from="524363437#2" to="497253399#0"/>
    <trip id="89" depart="17.16" from="397839400#0" to="564392620"/>
    <trip id="90" depart="17.35" from="556311124#15" to="1021481767#1"/>
    <trip id="91" depart="17.54" from="46443588#0" to="1049920718#0"/>
    <trip id="92" depart="17.74" from="852992107#0" to="706833044#8"/>
    <trip id="93" depart="17.93" from="481047237#0" to="384649120#5"/>
    <trip id="94" depart="18.12" from="1029634435#0" to="496977101#0"/>
    <trip id="95" depart="18.32" from="954826394#0" to="414751576#0"/>
    <trip id="96" depart="18.51" from="195743138#0" to="1088320647#0"/>
    <trip id="97" depart="18.70" from="-5669892#6" to="524388531#0"/>
    <trip id="98" depart="18.89" from="464516471#0" to="5670012#3"/>
    <trip id="99" depart="19.09" from="-1081895353#1" to="5670084#6"/>
    <trip id="100" depart="19.28" from="954520389#0" to="895398385#0"/>
    <trip id="101" depart="19.47" from="5668983#0" to="1080982427#0"/>
    <trip id="102" depart="19.66" from="-5669709#2" to="686125781#3"/>
    <trip id="103" depart="19.86" from="450807242#0" to="852992101#0"/>
    <trip id="104" depart="20.05" from="458106344#0" to="989265268#0"/>
    <trip id="105" depart="20.24" from="5672896#6" to="968737541#0"/>
    <trip id="106" depart="20.44" from="992141077#12" to="165774923"/>
    <trip id="107" depart="20.63" from="1049920717#0" to="194923762#0"/>
    <trip id="108" depart="20.82" from="194926851#0" to="-226040985#1"/>
    <trip id="109" depart="21.01" from="5670299#0" to="46334600"/>
    <trip id="110" depart="21.21" from="-46524983#1" to="194923802#0"/>
    <trip id="111" depart="21.40" from="169383517" to="421852037"/>
    <trip id="112" depart="21.59" from="46482602#2" to="-420623119"/>
    <trip id="113" depart="21.79" from="1150636499#0" to="420352244#0"/>
    <trip id="114" depart="21.98" from="1188730038" to="46201630#0"/>
    <trip id="115" depart="22.17" from="1151034558#0" to="1127576696#0"/>
    <trip id="116" depart="22.36" from="-5671307#8" to="198595461#4"/>
    <trip id="117" depart="22.56" from="-46694753#9" to="-1088325197#1"/>
    <trip id="118" depart="22.75" from="438388090#0" to="1031879418#0"/>
    <trip id="119" depart="22.94" from="-46524969#1" to="456308944#0"/>
    <trip id="120" depart="23.14" from="22902610#0" to="68674962#92"/>
    <trip id="121" depart="23.33" from="5672129#0" to="226041007#1"/>
    <trip id="122" depart="23.52" from="420809413#0" to="884400301#0"/>
    <trip id="123" depart="23.71" from="1057563582" to="-584971531#2"/>
    <trip id="124" depart="23.91" from="5669710#0" to="22897633#9"/>
    <trip id="125" depart="24.10" from="-837696047#2" to="195743301#0"/>
    <trip id="126" depart="24.29" from="1106469542#6" to="1185872415#0"/>
    <trip id="127" depart="24.48" from="480112475#0" to="1052660936#0"/>
    <trip id="128" depart="24.68" from="-22937242" to="5669709#0"/>
    <trip id="129" depart="24.87" from="25199870#1" to="420809408#0"/>
    <trip id="130" depart="25.06" from="989793292#0" to="5669866#5"/>
    <trip id="131" depart="25.26" from="420872193#0" to="-195743267#1"/>
    <trip id="132" depart="25.45" from="479642033#4" to="468414628#0"/>
    <trip id="133" depart="25.64" from="480112478#0" to="464522037#12"/>
    <trip id="134" depart="25.83" from="912475761#0" to="46443624"/>
    <trip id="135" depart="26.03" from="611258687#2" to="195743196"/>
    <trip id="136" depart="26.22" from="68668558#0" to="1144268432#0"/>
    <trip id="137" depart="26.41" from="1224480435#0" to="1049841322#9"/>
    <trip id="138" depart="26.61" from="812936282#2" to="505773769#0"/>
    <trip id="139" depart="26.80" from="23048548" to="481047237#0"/>
    <trip id="140" depart="26.99" from="541329572#0" to="68674960#0"/>
    <trip id="141" depart="27.18" from="46171888#0" to="-763971141#3"/>
    <trip id="142" depart="27.38" from="1202563952#0" to="763126558#0"/>
    <trip id="143" depart="27.57" from="588168462#0" to="587061856#9"/>
    <trip id="144" depart="27.76" from="68674962#110" to="68668541#0"/>
    <trip id="145" depart="27.95" from="5670204#0" to="195743185#3"/>
    <trip id="146" depart="28.15" from="252227354#5" to="497165753#9"/>
    <trip id="147" depart="28.34" from="5669815#0" to="5672937#0"/>
    <trip id="148" depart="28.53" from="1038772917#3" to="25564137"/>
    <trip id="149" depart="28.73" from="5668999#0" to="420890028#0"/>
    <trip id="150" depart="28.92" from="420901673#0" to="46332307#0"/>
    <trip id="151" depart="29.11" from="1043341289#0" to="195743554#0"/>
    <trip id="152" depart="29.30" from="-194923778#1" to="5672190#0"/>
    <trip id="153" depart="29.50" from="157012398#3" to="32958722"/>
    <trip id="154" depart="29.69" from="847952489#0" to="46154330#0"/>
    <trip id="155" depart="29.88" from="1287670372" to="382740985#0"/>
    <trip id="156" depart="30.08" from="413727897#0" to="-68668557#2"/>
    <trip id="157" depart="30.27" from="194923808#0" to="992141077#15"/>
    <trip id="158" depart="30.46" from="308322446#0" to="989791207#0"/>
    <trip id="159" depart="30.65" from="420629930#0" to="-945473887#1"/>
    <trip id="160" depart="30.85" from="1022549185#3" to="194923795#0"/>
    <trip id="161" depart="31.04" from="-584971532#2" to="375165500#0"/>
    <trip id="162" depart="31.23" from="1189567313#8" to="420908133#0"/>
    <trip id="163" depart="31.43" from="195743131#0" to="-480682396#1"/>
    <trip id="164" depart="31.62" from="1046750793#0" to="968394454#4"/>
    <trip id="165" depart="31.81" from="420809434" to="5673523#0"/>
    <trip id="166" depart="32.00" from="1189567313#5" to="1088327050#0"/>
    <trip id="167" depart="32.20" from="46694762#3" to="686125781#0"/>
    <trip id="168" depart="32.39" from="194920158#7" to="1106482768#0"/>
    <trip id="169" depart="32.58" from="-584971510#1" to="694312424#0"/>
    <trip id="170" depart="32.77" from="945523294#0" to="1202586282#0"/>
    <trip id="171" depart="32.97" from="1016425694" to="199927849#0"/>
    <trip id="172" depart="33.16" from="1025734018#0" to="275298552#0"/>
    <trip id="173" depart="33.35" from="808190588#0" to="-46694759#2"/>
    <trip id="174" depart="33.55" from="962602326#0" to="1198594026#0"/>
    <trip id="175" depart="33.74" from="1237670402#0" to="194923786#3"/>
    <trip id="176" depart="33.93" from="-587038129#1" to="496986803#0"/>
    <trip id="177" depart="34.12" from="-1136699160#2" to="125480075#0"/>
    <trip id="178" depart="34.32" from="381480256#0" to="-5671084#1"/>
    <trip id="179" depart="34.51" from="957085297" to="-579565236#1"/>
    <trip id="180" depart="34.70" from="993797891#0" to="658583340#0"/>
    <trip id="181" depart="34.90" from="1158491837#0" to="384898122#2"/>
    <trip id="182" depart="35.09" from="1158491835" to="5669815#0"/>
    <trip id="183" depart="35.28" from="420623118#0" to="5672178#0"/>
    <trip id="184" depart="35.47" from="460589632#0" to="46608946#12"/>
    <trip id="185" depart="35.67" from="5669669#4" to="125525171#0"/>
    <trip id="186" depart="35.86" from="46160225#3" to="630828555#0"/>
    <trip id="187" depart="36.05" from="-588314388" to="584971463#0"/>
    <trip id="188" depart="36.24" from="129834314#0" to="46694760#3"/>
    <trip id="189" depart="36.44" from="46431825#0" to="1051743127#0"/>
    <trip id="190" depart="36.63" from="46116183#0" to="1211049195#0"/>
    <trip id="191" depart="36.82" from="518451322#0" to="706833046#0"/>
    <trip id="192" depart="37.02" from="196117028#6" to="-837696051#1"/>
    <trip id="193" depart="37.21" from="118714476#0" to="-5671774#3"/>
    <trip id="194" depart="37.40" from="68674962#107" to="5672710#1"/>
    <trip id="195" depart="37.59" from="439842817" to="420357268#0"/>
    <trip id="196" depart="37.79" from="420897874#0" to="1081883664"/>
    <trip id="197" depart="37.98" from="-46334605#3" to="569345508#0"/>
    <trip id="198" depart="38.17" from="542096278#0" to="1038939784#0"/>
    <trip id="199" depart="38.37" from="5671401#0" to="414893144#0"/>
    <trip id="200" depart="38.56" from="46154281#0" to="157012398#3"/>
    <trip id="201" depart="38.75" from="5669875#0" to="458180186#0"/>
    <trip id="202" depart="38.94" from="989267824#0" to="196117042#6"/>
    <trip id="203" depart="39.14" from="584971516#0" to="496990647#6"/>
    <trip id="204" depart="39.33" from="-46334605#15" to="5669804#0"/>
    <trip id="205" depart="39.52" from="845781114#16" to="32935109"/>
    <trip id="206" depart="39.72" from="452339698#0" to="420598230#0"/>
    <trip id="207" depart="39.91" from="584971474#0" to="1205533071#0"/>
    <trip id="208" depart="40.10" from="25167210#2" to="1128358854"/>
    <trip id="209" depart="40.29" from="989265273#3" to="-458106348#3"/>
    <trip id="210" depart="40.49" from="1140716171#0" to="1080862159#0"/>
    <trip id="211" depart="40.68" from="-46211840#8" to="1123883121#15"/>
    <trip id="212" depart="40.87" from="5671172#2" to="5671158#0"/>
    <trip id="213" depart="41.06" from="439801907#2" to="320480539#0"/>
    <trip id="214" depart="41.26" from="480112483#0" to="1222356566#0"/>
    <trip id="215" depart="41.45" from="-542096280#1" to="196117091#0"/>
    <trip id="216" depart="41.64" from="68674961#3" to="32935109"/>
    <trip id="217" depart="41.84" from="569345531#0" to="348488662#0"/>
    <trip id="218" depart="42.03" from="5671628#3" to="1184673315"/>
    <trip id="219" depart="42.22" from="1136412582#0" to="-671201389#1"/>
    <trip id="220" depart="42.41" from="5672402#0" to="5668968#10"/>
    <trip id="221" depart="42.61" from="-584971532#2" to="936539647#0"/>
    <trip id="222" depart="42.80" from="140391522#0" to="5672176#0"/>
    <trip id="223" depart="42.99" from="1080185970#0" to="706833046#6"/>
    <trip id="224" depart="43.19" from="5671475#12" to="39662324#4"/>
    <trip id="225" depart="43.38" from="481403099#0" to="-904809349#1"/>
    <trip id="226" depart="43.57" from="46160365#6" to="195743555#0"/>
    <trip id="227" depart="43.76" from="1151033517#3" to="39662323#0"/>
    <trip id="228" depart="43.96" from="661227257#0" to="-46481754#2"/>
    <trip id="229" depart="44.15" from="-46160244#2" to="1049841322#6"/>
    <trip id="230" depart="44.34" from="-439801907#11" to="890023178#0"/>
    <trip id="231" depart="44.53" from="118714476#3" to="166038145#0"/>
    <trip id="232" depart="44.73" from="989267825#0" to="420890085#0"/>
    <trip id="233" depart="44.92" from="420512231#0" to="1024556674#0"/>
    <trip id="234" depart="45.11" from="968393468#0" to="1080982434#0"/>
    <trip id="235" depart="45.31" from="993795184" to="539024460#2"/>
    <trip id="236" depart="45.50" from="5669935#2" to="388318981#0"/>
    <trip id="237" depart="45.69" from="480682394#0" to="-420872209"/>
    <trip id="238" depart="45.88" from="181375404#6" to="40956098#0"/>
    <trip id="239" depart="46.08" from="34080062#3" to="194923759"/>
    <trip id="240" depart="46.27" from="5671202#0" to="127691872#0"/>
    <trip id="241" depart="46.46" from="46160225#0" to="-46160404#3"/>
    <trip id="242" depart="46.66" from="420906755#0" to="910363795#0"/>
    <trip id="243" depart="46.85" from="196117090#0" to="1205533070#0"/>
    <trip id="244" depart="47.04" from="226041031" to="1022549186#0"/>
    <trip id="245" depart="47.23" from="1158491837#0" to="5671661#0"/>
    <trip id="246" depart="47.43" from="420598236#0" to="188559800#0"/>
    <trip id="247" depart="47.62" from="5671401#0" to="144944189"/>
    <trip id="248" depart="47.81" from="1036714796#2" to="46694751#0"/>
    <trip id="249" depart="48.01" from="1202586284#2" to="968737541#0"/>
    <trip id="250" depart="48.20" from="195743311#0" to="420352251#0"/>
    <trip id="251" depart="48.39" from="5670707#11" to="420888144#0"/>
    <trip id="252" depart="48.58" from="439933951#0" to="954541805"/>
    <trip id="253" depart="48.78" from="5671192#0" to="1007833787#0"/>
    <trip id="254" depart="48.97" from="439933951#0" to="1149701654#2"/>
    <trip id="255" depart="49.16" from="1106469542#3" to="872052105#0"/>
    <trip id="256" depart="49.35" from="481047237#0" to="46348768#0"/>
    <trip id="257" depart="49.55" from="5673085#0" to="1202586283#0"/>
    <trip id="258" depart="49.74" from="954955257" to="5669962#0"/>
    <trip id="259" depart="49.93" from="496989957#0" to="196117042#3"/>
    <trip id="260" depart="50.13" from="729972924#0" to="1088320654#0"/>
    <trip id="261" depart="50.32" from="5672925#0" to="226193929#2"/>
    <trip id="262" depart="50.51" from="5672607#3" to="788278348#0"/>
    <trip id="263" depart="50.70" from="195743132#0" to="-195743222#1"/>
    <trip id="264" depart="50.90" from="194926855#0" to="658498543#0"/>
    <trip id="265" depart="51.09" from="884400293#0" to="587061846#0"/>
    <trip id="266" depart="51.28" from="5670707#7" to="42786502#4"/>
    <trip id="267" depart="51.48" from="1036714799#0" to="5671629#0"/>
    <trip id="268" depart="51.67" from="196117028#3" to="46525065#0"/>
    <trip id="269" depart="51.86" from="-5672398#2" to="190550014#2"/>
    <trip id="270" depart="52.05" from="686125781#0" to="497769952#0"/>
    <trip id="271" depart="52.25" from="1021481768#0" to="194920158#4"/>
    <trip id="272" depart="52.44" from="1067728688#0" to="421825696"/>
    <trip id="273" depart="52.63" from="1238990622#0" to="1128388462#0"/>
    <trip id="274" depart="52.82" from="1123883121#12" to="122660459"/>
    <trip id="275" depart="53.02" from="-439842840" to="1080864179#0"/>
    <trip id="276" depart="53.21" from="46334605#0" to="194923800#0"/>
    <trip id="277" depart="53.40" from="511699182#0" to="686125781#10"/>
    <trip id="278" depart="53.60" from="1156474000#0" to="962612852"/>
    <trip id="279" depart="53.79" from="524363437#2" to="464683323#0"/>
    <trip id="280" depart="53.98" from="-277201109#2" to="968394452#0"/>
    <trip id="281" depart="54.17" from="460585328#12" to="616745176#0"/>
    <trip id="282" depart="54.37" from="488376503#0" to="835176557#0"/>
    <trip id="283" depart="54.56" from="5670711#0" to="194923802#0"/>
    <trip id="284" depart="54.75" from="847952488#1" to="858965315#0"/>
    <trip id="285" depart="54.95" from="710571390#0" to="5670942#0"/>
    <trip id="286" depart="55.14" from="812936280#0" to="505766273#0"/>
    <trip id="287" depart="55.33" from="-5670738#4" to="-194923778#1"/>
    <trip id="288" depart="55.52" from="-195743215#1" to="46154330#3"/>
    <trip id="289" depart="55.72" from="1051744070#0" to="-5670510#3"/>
    <trip id="290" depart="55.91" from="837696054#0" to="391864586#0"/>
    <trip id="291" depart="56.10" from="659714534#0" to="421853633#0"/>
    <trip id="292" depart="56.30" from="5670657" to="5669962#11"/>
    <trip id="293" depart="56.49" from="954955253#0" to="68668546#0"/>
    <trip id="294" depart="56.68" from="461593096#0" to="-536917120#1"/>
    <trip id="295" depart="56.87" from="-46160106" to="968393476#0"/>
    <trip id="296" depart="57.07" from="-194923791#1" to="497002542#0"/>
    <trip id="297" depart="57.26" from="5671475#0" to="46171884#3"/>
    <trip id="298" depart="57.45" from="420901922#0" to="5673530#0"/>
    <trip id="299" depart="57.64" from="420351725#0" to="5672535#3"/>
    <trip id="300" depart="57.84" from="588314387" to="194926847#0"/>
    <trip id="301" depart="58.03" from="-1080862166#1" to="46521736#0"/>
    <trip id="302" depart="58.22" from="464516471#11" to="456313638#0"/>
    <trip id="303" depart="58.42" from="368938760#0" to="420904618#0"/>
    <trip id="304" depart="58.61" from="420809420#7" to="5670814#3"/>
    <trip id="305" depart="58.80" from="421850830#0" to="-814612602#5"/>
    <trip id="306" depart="58.99" from="1029634435#0" to="5670888#4"/>
    <trip id="307" depart="59.19" from="46431829#3" to="446864091#13"/>
    <trip id="308" depart="59.38" from="846122853#0" to="1049845754#0"/>
    <trip id="309" depart="59.57" from="1088320649#0" to="541346245#0"/>
    <trip id="310" depart="59.77" from="5673523#0" to="226040996#0"/>
    <trip id="311" depart="59.96" from="439842823#0" to="357946354#0"/>
    <trip id="312" depart="60.15" from="5673102#0" to="157012387#0"/>
    <trip id="313" depart="60.34" from="1049920716#0" to="808190579#0"/>
    <trip id="314" depart="60.54" from="5669938#5" to="611258688#0"/>
    <trip id="315" depart="60.73" from="46201677#0" to="195743165#0"/>
    <trip id="316" depart="60.92" from="1224480430#0" to="978443489#0"/>
    <trip id="317" depart="61.11" from="955237974#0" to="1135346523#0"/>
    <trip id="318" depart="61.31" from="5670514#3" to="-991205021#2"/>
    <trip id="319" depart="61.50" from="5673171#0" to="978675658#6"/>
    <trip id="320" depart="61.69" from="-628093103#2" to="957085297"/>
    <trip id="321" depart="61.89" from="-167922076#2" to="847942275"/>
    <trip id="322" depart="62.08" from="32935474" to="458166894#0"/>
    <trip id="323" depart="62.27" from="895348610#0" to="5672896#12"/>
    <trip id="324" depart="62.46" from="46525065#3" to="1080982440#0"/>
    <trip id="325" depart="62.66" from="46348790" to="5670600#0"/>
    <trip id="326" depart="62.85" from="195743554#20" to="-5671945#2"/>
    <trip id="327" depart="63.04" from="1230663915#0" to="1227588718#0"/>
    <trip id="328" depart="63.24" from="588157329#0" to="32936733"/>
    <trip id="329" depart="63.43" from="978329305#0" to="412875705#0"/>
    <trip id="330" depart="63.62" from="5671436#8" to="964208970#0"/>
    <trip id="331" depart="63.81" from="813956617#9" to="889114533#15"/>
    <trip id="332" depart="64.01" from="-813972135#2" to="-22909247"/>
    <trip id="333" depart="64.20" from="164420607#0" to="5670707#11"/>
    <trip id="334" depart="64.39" from="5671413#0" to="1106469542#3"/>
    <trip id="335" depart="64.59" from="1061439211#0" to="5670084#0"/>
    <trip id="336" depart="64.78" from="46431829#3" to="46160330#0"/>
    <trip id="337" depart="64.97" from="986157727" to="-587355676#1"/>
    <trip id="338" depart="65.16" from="421852035" to="464515259#0"/>
    <trip id="339" depart="65.36" from="1136460176#0" to="421825693#0"/>
    <trip id="340" depart="65.55" from="420598323#0" to="664660189"/>
    <trip id="341" depart="65.74" from="420352248#0" to="993368837"/>
    <trip id="342" depart="65.93" from="-273019810#1" to="46469720#0"/>
    <trip id="343" depart="66.13" from="1224492208" to="954520389#0"/>
    <trip id="344" depart="66.32" from="942444177#0" to="-68668559#8"/>
    <trip id="345" depart="66.51" from="945384091#0" to="46694758#0"/>
    <trip id="346" depart="66.71" from="-165777195#1" to="169381960#0"/>
    <trip id="347" depart="66.90" from="381480876" to="464683329#9"/>
    <trip id="348" depart="67.09" from="452319915" to="492148700#0"/>
    <trip id="349" depart="67.28" from="5671628#3" to="1088320652#0"/>
    <trip id="350" depart="67.48" from="539024460#4" to="195743131#0"/>
    <trip id="351" depart="67.67" from="196116976#6" to="112116234#4"/>
    <trip id="352" depart="67.86" from="5672073#0" to="474304539#0"/>
    <trip id="353" depart="68.06" from="420901673#0" to="1061979016#0"/>
    <trip id="354" depart="68.25" from="118400728#0" to="-226193929#3"/>
    <trip id="355" depart="68.44" from="46518734#0" to="1042964169#0"/>
    <trip id="356" depart="68.63" from="-226040985#1" to="5669226#2"/>
    <trip id="357" depart="68.83" from="195743557#2" to="-492148705#2"/>
    <trip id="358" depart="69.02" from="46334583#0" to="-169381957#2"/>
    <trip id="359" depart="69.21" from="511699178#0" to="671208358#0"/>
    <trip id="360" depart="69.41" from="-5670254#2" to="584850104#3"/>
    <trip id="361" depart="69.60" from="433394647#0" to="44165029#0"/>
    <trip id="362" depart="69.79" from="5670172#0" to="1135576504#0"/>
    <trip id="363" depart="69.98" from="963551553#11" to="-195743222#1"/>
    <trip id="364" depart="70.18" from="1106482765#0" to="-1080978586#3"/>
    <trip id="365" depart="70.37" from="-1081824061#3" to="458180190#0"/>
    <trip id="366" depart="70.56" from="466956274#0" to="-194923762#1"/>
    <trip id="367" depart="70.75" from="352705238#0" to="569345547#0"/>
    <trip id="368" depart="70.95" from="686125782#12" to="497002544#0"/>
    <trip id="369" depart="71.14" from="663797737#0" to="511924053#0"/>
    <trip id="370" depart="71.33" from="-1238545752#2" to="1266830886#3"/>
    <trip id="371" depart="71.53" from="485746107#0" to="46171887#0"/>
    <trip id="372" depart="71.72" from="22902610#0" to="169383514#0"/>
    <trip id="373" depart="71.91" from="438384693#3" to="464515614#6"/>
    <trip id="374" depart="72.10" from="542216186#0" to="-47795999#2"/>
    <trip id="375" depart="72.30" from="5670728#2" to="1157664114#0"/>
    <trip id="376" depart="72.49" from="46332307#0" to="5670193#10"/>
    <trip id="377" depart="72.68" from="958188024#0" to="308322446#0"/>
    <trip id="378" depart="72.88" from="-195743195#2" to="195743179#1"/>
    <trip id="379" depart="73.07" from="226041009#0" to="5673102#2"/>
    <trip id="380" depart="73.26" from="991205022#0" to="1224480432#0"/>
    <trip id="381" depart="73.45" from="-837696056#1" to="1088327048#0"/>
    <trip id="382" depart="73.65" from="5669226#0" to="438362422#0"/>
    <trip id="383" depart="73.84" from="68668562#0" to="-584971513"/>
    <trip id="384" depart="74.03" from="588157336#0" to="420897875#0"/>
    <trip id="385" depart="74.22" from="1148931681#0" to="1025734020#3"/>
    <trip id="386" depart="74.42" from="815019389#0" to="1022813500#0"/>
    <trip id="387" depart="74.61" from="36806670" to="658583340#0"/>
    <trip id="388" depart="74.80" from="480112480#3" to="1202586285#0"/>
    <trip id="389" depart="75.00" from="587061858#6" to="965833822#0"/>
    <trip id="390" depart="75.19" from="837450655" to="196117028#6"/>
    <trip id="391" depart="75.38" from="5669841#19" to="-451954042#1"/>
    <trip id="392" depart="75.57" from="226092573#0" to="194923795#9"/>
    <trip id="393" depart="75.77" from="5670657" to="524817693#0"/>
    <trip id="394" depart="75.96" from="34625442" to="1057527157#0"/>
    <trip id="395" depart="76.15" from="-5670254#5" to="196117091#0"/>
    <trip id="396" depart="76.35" from="659714535#0" to="385667445#0"/>
    <trip id="397" depart="76.54" from="968393477#0" to="194920158#13"/>
    <trip id="398" depart="76.73" from="659714534#0" to="-497154281#10"/>
    <trip id="399" depart="76.92" from="-837696051#1" to="456308944#0"/>
    <trip id="400" depart="77.12" from="-1080862179#1" to="903589927#0"/>
    <trip id="401" depart="77.31" from="837450655" to="5671300"/>
    <trip id="402" depart="77.50" from="388240124#13" to="1038772917#0"/>
    <trip id="403" depart="77.70" from="420892264#0" to="-46349386#8"/>
    <trip id="404" depart="77.89" from="195743158#0" to="439842823#0"/>
    <trip id="405" depart="78.08" from="458166892#0" to="1080862167"/>
    <trip id="406" depart="78.27" from="710571392#3" to="340825593-AddedOnRampEdge"/>
    <trip id="407" depart="78.47" from="46139023#0" to="-1081893303#1"/>
    <trip id="408" depart="78.66" from="5670087#0" to="-5671197#3"/>
    <trip id="409" depart="78.85" from="630828592#2" to="958188024#0"/>
    <trip id="410" depart="79.04" from="420872205#0" to="169383518#0"/>
    <trip id="411" depart="79.24" from="5673456" to="420908134"/>
    <trip id="412" depart="79.43" from="-496977101#3" to="195743271#0"/>
    <trip id="413" depart="79.62" from="5670204#0" to="403405990#0"/>